MODEL 1
REMARK VINA RESULT:      -8.6      0.000      0.000
REMARK  4 active torsions:
REMARK  status: ('A' for Active; 'I' for Inactive)
REMARK    1  A    between atoms: C_2  and  C_16 
REMARK    2  A    between atoms: C_16  and  C_17 
REMARK    3  A    between atoms: C_17  and  C_18 
REMARK    4  A    between atoms: C_18  and  C_19 
ROOT
HETATM    1  C   UNK     0     156.617 117.193 192.574  0.00  0.00    -0.026 A 
HETATM    2  C   UNK     0     155.800 118.410 192.091  0.00  0.00    -0.041 A 
HETATM    3  C   UNK     0     154.252 118.332 192.052  0.00  0.00     0.076 A 
HETATM    4  C   UNK     0     153.536 117.044 192.493  0.00  0.00     0.109 A 
HETATM    5  C   UNK     0     155.895 115.906 193.015  0.00  0.00     0.067 A 
HETATM    6  C   UNK     0     154.352 115.840 192.971  0.00  0.00     0.003 A 
HETATM    7  C   UNK     0     155.975 113.402 193.938  0.00  0.00    -0.030 A 
HETATM    8  C   UNK     0     154.433 113.337 193.894  0.00  0.00    -0.031 A 
HETATM    9  C   UNK     0     153.628 114.567 193.407  0.00  0.00    -0.028 A 
HETATM   10  C   UNK     0     152.091 114.513 193.360  0.00  0.00     0.026 A 
HETATM   11  C   UNK     0     151.345 113.230 193.798  0.00  0.00     0.005 A 
HETATM   12  C   UNK     0     152.148 112.000 194.285  0.00  0.00     0.005 A 
HETATM   13  C   UNK     0     153.699 112.052 194.334  0.00  0.00     0.026 A 
HETATM   14  C   UNK     0     149.806 113.177 193.750  0.00  0.00     0.000 C 
HETATM   15  O   UNK     0     151.999 116.966 192.455  0.00  0.00    -0.195 OA
HETATM   16  C   UNK     0     156.704 114.686 193.499  0.00  0.00    -0.022 A 
HETATM   17  C   UNK     0     156.784 112.185 194.421  0.00  0.00     0.030 C 
HETATM   18  O   UNK     0     157.428 115.968 193.060  0.00  0.00     0.000 OA
ENDROOT
BRANCH   2  19
HETATM   19  C   UNK     0     156.520 119.698 191.650  0.00  0.00     0.022 C 
BRANCH  19  20
HETATM   20  C   UNK     0     157.295 119.728 190.319  0.00  0.00     0.004 C 
BRANCH  20  21
HETATM   21  C   UNK     0     157.085 118.610 189.281  0.00  0.00     0.000 C 
BRANCH  21  22
HETATM   22  C   UNK     0     157.956 117.342 189.329  0.00  0.00     0.000 C 
HETATM   23  C   UNK     0     159.297 117.357 190.086  0.00  0.00     0.000 C 
ENDBRANCH  21  22
ENDBRANCH  20  21
ENDBRANCH  19  20
ENDBRANCH   2  19
TORSDOF 4
ENDMDL
MODEL 2
REMARK VINA RESULT:      -8.4      1.508      2.426
REMARK  4 active torsions:
REMARK  status: ('A' for Active; 'I' for Inactive)
REMARK    1  A    between atoms: C_2  and  C_16 
REMARK    2  A    between atoms: C_16  and  C_17 
REMARK    3  A    between atoms: C_17  and  C_18 
REMARK    4  A    between atoms: C_18  and  C_19 
ROOT
HETATM    1  C   UNK     0     156.242 114.608 193.190  0.00  0.00    -0.026 A 
HETATM    2  C   UNK     0     156.032 116.028 192.624  0.00  0.00    -0.041 A 
HETATM    3  C   UNK     0     154.596 116.545 192.354  0.00  0.00     0.076 A 
HETATM    4  C   UNK     0     153.386 115.642 192.650  0.00  0.00     0.109 A 
HETATM    5  C   UNK     0     155.027 113.708 193.484  0.00  0.00     0.067 A 
HETATM    6  C   UNK     0     153.600 114.234 193.211  0.00  0.00     0.003 A 
HETATM    7  C   UNK     0     154.009 111.395 194.342  0.00  0.00    -0.030 A 
HETATM    8  C   UNK     0     152.583 111.921 194.069  0.00  0.00    -0.031 A 
HETATM    9  C   UNK     0     152.390 113.348 193.501  0.00  0.00    -0.028 A 
HETATM   10  C   UNK     0     150.973 113.883 193.225  0.00  0.00     0.026 A 
HETATM   11  C   UNK     0     149.739 112.997 193.514  0.00  0.00     0.005 A 
HETATM   12  C   UNK     0     149.930 111.569 194.082  0.00  0.00     0.005 A 
HETATM   13  C   UNK     0     151.358 111.028 194.361  0.00  0.00     0.026 A 
HETATM   14  C   UNK     0     148.321 113.533 193.237  0.00  0.00     0.000 C 
HETATM   15  O   UNK     0     151.959 116.155 192.382  0.00  0.00    -0.195 OA
HETATM   16  C   UNK     0     155.229 112.288 194.050  0.00  0.00    -0.022 A 
HETATM   17  C   UNK     0     154.211 109.977 194.906  0.00  0.00     0.030 C 
HETATM   18  O   UNK     0     156.443 113.182 193.757  0.00  0.00     0.000 OA
ENDROOT
BRANCH   2  19
HETATM   19  C   UNK     0     157.245 116.929 192.328  0.00  0.00     0.022 C 
BRANCH  19  20
HETATM   20  C   UNK     0     157.681 117.179 190.872  0.00  0.00     0.004 C 
BRANCH  20  21
HETATM   21  C   UNK     0     158.966 116.524 190.331  0.00  0.00     0.000 C 
BRANCH  21  22
HETATM   22  C   UNK     0     159.064 114.991 190.228  0.00  0.00     0.000 C 
HETATM   23  C   UNK     0     159.621 114.339 188.949  0.00  0.00     0.000 C 
ENDBRANCH  21  22
ENDBRANCH  20  21
ENDBRANCH  19  20
ENDBRANCH   2  19
TORSDOF 4
ENDMDL
MODEL 3
REMARK VINA RESULT:      -8.0      5.131      7.576
REMARK  4 active torsions:
REMARK  status: ('A' for Active; 'I' for Inactive)
REMARK    1  A    between atoms: C_2  and  C_16 
REMARK    2  A    between atoms: C_16  and  C_17 
REMARK    3  A    between atoms: C_17  and  C_18 
REMARK    4  A    between atoms: C_18  and  C_19 
ROOT
HETATM    1  C   UNK     0     155.136 115.318 195.317  0.00  0.00    -0.026 A 
HETATM    2  C   UNK     0     156.103 114.289 194.696  0.00  0.00    -0.041 A 
HETATM    3  C   UNK     0     157.179 113.610 195.582  0.00  0.00     0.076 A 
HETATM    4  C   UNK     0     157.279 113.964 197.076  0.00  0.00     0.109 A 
HETATM    5  C   UNK     0     155.240 115.669 196.813  0.00  0.00     0.067 A 
HETATM    6  C   UNK     0     156.316 114.986 197.687  0.00  0.00     0.003 A 
HETATM    7  C   UNK     0     154.388 117.042 198.938  0.00  0.00    -0.030 A 
HETATM    8  C   UNK     0     155.463 116.359 199.810  0.00  0.00    -0.031 A 
HETATM    9  C   UNK     0     156.426 115.328 199.171  0.00  0.00    -0.028 A 
HETATM   10  C   UNK     0     157.502 114.642 200.032  0.00  0.00     0.026 A 
HETATM   11  C   UNK     0     157.625 114.979 201.537  0.00  0.00     0.005 A 
HETATM   12  C   UNK     0     156.663 116.009 202.177  0.00  0.00     0.005 A 
HETATM   13  C   UNK     0     155.577 116.703 201.311  0.00  0.00     0.026 A 
HETATM   14  C   UNK     0     158.702 114.291 202.397  0.00  0.00     0.000 C 
HETATM   15  O   UNK     0     158.347 113.290 197.957  0.00  0.00    -0.195 OA
HETATM   16  C   UNK     0     154.278 116.696 197.441  0.00  0.00    -0.022 A 
HETATM   17  C   UNK     0     153.426 118.068 199.564  0.00  0.00     0.030 C 
HETATM   18  O   UNK     0     154.170 116.349 195.948  0.00  0.00     0.000 OA
ENDROOT
BRANCH   2  19
HETATM   19  C   UNK     0     156.001 113.936 193.200  0.00  0.00     0.022 C 
BRANCH  19  20
HETATM   20  C   UNK     0     156.321 112.508 192.723  0.00  0.00     0.004 C 
BRANCH  20  21
HETATM   21  C   UNK     0     155.175 111.536 192.383  0.00  0.00     0.000 C 
BRANCH  21  22
HETATM   22  C   UNK     0     154.425 110.805 193.512  0.00  0.00     0.000 C 
HETATM   23  C   UNK     0     153.077 111.350 194.019  0.00  0.00     0.000 C 
ENDBRANCH  21  22
ENDBRANCH  20  21
ENDBRANCH  19  20
ENDBRANCH   2  19
TORSDOF 4
ENDMDL
MODEL 4
REMARK VINA RESULT:      -7.9     56.219     60.646
REMARK  4 active torsions:
REMARK  status: ('A' for Active; 'I' for Inactive)
REMARK    1  A    between atoms: C_2  and  C_16 
REMARK    2  A    between atoms: C_16  and  C_17 
REMARK    3  A    between atoms: C_17  and  C_18 
REMARK    4  A    between atoms: C_18  and  C_19 
ROOT
HETATM    1  C   UNK     0     161.446 160.783 151.127  0.00  0.00    -0.026 A 
HETATM    2  C   UNK     0     160.505 159.563 151.042  0.00  0.00    -0.041 A 
HETATM    3  C   UNK     0     160.068 158.836 152.339  0.00  0.00     0.076 A 
HETATM    4  C   UNK     0     160.571 159.332 153.705  0.00  0.00     0.109 A 
HETATM    5  C   UNK     0     161.948 161.276 152.497  0.00  0.00     0.067 A 
HETATM    6  C   UNK     0     161.505 160.543 153.783  0.00  0.00     0.003 A 
HETATM    7  C   UNK     0     163.385 162.981 153.964  0.00  0.00    -0.030 A 
HETATM    8  C   UNK     0     162.942 162.249 155.249  0.00  0.00    -0.031 A 
HETATM    9  C   UNK     0     161.998 161.026 155.146  0.00  0.00    -0.028 A 
HETATM   10  C   UNK     0     161.550 160.288 156.421  0.00  0.00     0.026 A 
HETATM   11  C   UNK     0     162.041 160.766 157.808  0.00  0.00     0.005 A 
HETATM   12  C   UNK     0     162.986 161.989 157.912  0.00  0.00     0.005 A 
HETATM   13  C   UNK     0     163.439 162.734 156.628  0.00  0.00     0.026 A 
HETATM   14  C   UNK     0     161.592 160.028 159.082  0.00  0.00     0.000 C 
HETATM   15  O   UNK     0     160.137 158.611 154.994  0.00  0.00    -0.195 OA
HETATM   16  C   UNK     0     162.888 162.494 152.590  0.00  0.00    -0.022 A 
HETATM   17  C   UNK     0     164.324 164.197 154.056  0.00  0.00     0.030 C 
HETATM   18  O   UNK     0     162.390 162.006 151.221  0.00  0.00     0.000 OA
ENDROOT
BRANCH   2  19
HETATM   19  C   UNK     0     160.003 159.068 149.672  0.00  0.00     0.022 C 
BRANCH  19  20
HETATM   20  C   UNK     0     160.978 158.971 148.484  0.00  0.00     0.004 C 
BRANCH  20  21
HETATM   21  C   UNK     0     160.713 159.782 147.203  0.00  0.00     0.000 C 
BRANCH  21  22
HETATM   22  C   UNK     0     159.299 159.820 146.595  0.00  0.00     0.000 C 
HETATM   23  C   UNK     0     159.089 160.356 145.166  0.00  0.00     0.000 C 
ENDBRANCH  21  22
ENDBRANCH  20  21
ENDBRANCH  19  20
ENDBRANCH   2  19
TORSDOF 4
ENDMDL
MODEL 5
REMARK VINA RESULT:      -7.7     37.448     40.269
REMARK  4 active torsions:
REMARK  status: ('A' for Active; 'I' for Inactive)
REMARK    1  A    between atoms: C_2  and  C_16 
REMARK    2  A    between atoms: C_16  and  C_17 
REMARK    3  A    between atoms: C_17  and  C_18 
REMARK    4  A    between atoms: C_18  and  C_19 
ROOT
HETATM    1  C   UNK     0     152.143 114.279 153.714  0.00  0.00    -0.026 A 
HETATM    2  C   UNK     0     151.217 114.535 154.922  0.00  0.00    -0.041 A 
HETATM    3  C   UNK     0     150.843 115.988 155.311  0.00  0.00     0.076 A 
HETATM    4  C   UNK     0     151.394 117.168 154.493  0.00  0.00     0.109 A 
HETATM    5  C   UNK     0     152.691 115.465 152.898  0.00  0.00     0.067 A 
HETATM    6  C   UNK     0     152.311 116.908 153.295  0.00  0.00     0.003 A 
HETATM    7  C   UNK     0     154.160 116.408 150.879  0.00  0.00    -0.030 A 
HETATM    8  C   UNK     0     153.780 117.851 151.276  0.00  0.00    -0.031 A 
HETATM    9  C   UNK     0     152.851 118.090 152.491  0.00  0.00    -0.028 A 
HETATM   10  C   UNK     0     152.465 119.524 152.897  0.00  0.00     0.026 A 
HETATM   11  C   UNK     0     153.005 120.730 152.091  0.00  0.00     0.005 A 
HETATM   12  C   UNK     0     153.934 120.492 150.876  0.00  0.00     0.005 A 
HETATM   13  C   UNK     0     154.324 119.047 150.466  0.00  0.00     0.026 A 
HETATM   14  C   UNK     0     152.618 122.164 152.498  0.00  0.00     0.000 C 
HETATM   15  O   UNK     0     151.022 118.612 154.879  0.00  0.00    -0.195 OA
HETATM   16  C   UNK     0     153.615 115.217 151.690  0.00  0.00    -0.022 A 
HETATM   17  C   UNK     0     155.083 116.159 149.672  0.00  0.00     0.030 C 
HETATM   18  O   UNK     0     153.071 114.031 152.501  0.00  0.00     0.000 OA
ENDROOT
BRANCH   2  19
HETATM   19  C   UNK     0     150.668 113.350 155.739  0.00  0.00     0.022 C 
BRANCH  19  20
HETATM   20  C   UNK     0     150.184 112.078 155.019  0.00  0.00     0.004 C 
BRANCH  20  21
HETATM   21  C   UNK     0     148.803 112.059 154.336  0.00  0.00     0.000 C 
BRANCH  21  22
HETATM   22  C   UNK     0     147.804 110.931 154.652  0.00  0.00     0.000 C 
HETATM   23  C   UNK     0     147.998 109.534 154.031  0.00  0.00     0.000 C 
ENDBRANCH  21  22
ENDBRANCH  20  21
ENDBRANCH  19  20
ENDBRANCH   2  19
TORSDOF 4
ENDMDL
MODEL 6
REMARK VINA RESULT:      -7.7     66.108     69.168
REMARK  4 active torsions:
REMARK  status: ('A' for Active; 'I' for Inactive)
REMARK    1  A    between atoms: C_2  and  C_16 
REMARK    2  A    between atoms: C_16  and  C_17 
REMARK    3  A    between atoms: C_17  and  C_18 
REMARK    4  A    between atoms: C_18  and  C_19 
ROOT
HETATM    1  C   UNK     0     141.077 123.196 126.614  0.00  0.00    -0.026 A 
HETATM    2  C   UNK     0     141.757 122.582 125.372  0.00  0.00    -0.041 A 
HETATM    3  C   UNK     0     141.895 123.421 124.076  0.00  0.00     0.076 A 
HETATM    4  C   UNK     0     141.354 124.860 124.032  0.00  0.00     0.109 A 
HETATM    5  C   UNK     0     140.538 124.638 126.564  0.00  0.00     0.067 A 
HETATM    6  C   UNK     0     140.681 125.464 125.267  0.00  0.00     0.003 A 
HETATM    7  C   UNK     0     139.321 126.700 127.743  0.00  0.00    -0.030 A 
HETATM    8  C   UNK     0     139.464 127.526 126.446  0.00  0.00    -0.031 A 
HETATM    9  C   UNK     0     140.149 126.895 125.209  0.00  0.00    -0.028 A 
HETATM   10  C   UNK     0     140.297 127.709 123.911  0.00  0.00     0.026 A 
HETATM   11  C   UNK     0     139.762 129.159 123.839  0.00  0.00     0.005 A 
HETATM   12  C   UNK     0     139.078 129.791 125.075  0.00  0.00     0.005 A 
HETATM   13  C   UNK     0     138.927 128.972 126.385  0.00  0.00     0.026 A 
HETATM   14  C   UNK     0     139.911 129.973 122.539  0.00  0.00     0.000 C 
HETATM   15  O   UNK     0     141.491 125.695 122.744  0.00  0.00    -0.195 OA
HETATM   16  C   UNK     0     139.858 125.258 127.801  0.00  0.00    -0.022 A 
HETATM   17  C   UNK     0     138.642 127.318 128.979  0.00  0.00     0.030 C 
HETATM   18  O   UNK     0     140.394 123.819 127.855  0.00  0.00     0.000 OA
ENDROOT
BRANCH   2  19
HETATM   19  C   UNK     0     142.297 121.140 125.420  0.00  0.00     0.022 C 
BRANCH  19  20
HETATM   20  C   UNK     0     142.199 120.325 126.723  0.00  0.00     0.004 C 
BRANCH  20  21
HETATM   21  C   UNK     0     141.018 119.361 126.941  0.00  0.00     0.000 C 
BRANCH  21  22
HETATM   22  C   UNK     0     141.157 118.184 127.923  0.00  0.00     0.000 C 
HETATM   23  C   UNK     0     139.967 117.781 128.814  0.00  0.00     0.000 C 
ENDBRANCH  21  22
ENDBRANCH  20  21
ENDBRANCH  19  20
ENDBRANCH   2  19
TORSDOF 4
ENDMDL
MODEL 7
REMARK VINA RESULT:      -7.5     23.047     25.188
REMARK  4 active torsions:
REMARK  status: ('A' for Active; 'I' for Inactive)
REMARK    1  A    between atoms: C_2  and  C_16 
REMARK    2  A    between atoms: C_16  and  C_17 
REMARK    3  A    between atoms: C_17  and  C_18 
REMARK    4  A    between atoms: C_18  and  C_19 
ROOT
HETATM    1  C   UNK     0     140.016 135.121 186.917  0.00  0.00    -0.026 A 
HETATM    2  C   UNK     0     138.775 135.109 186.000  0.00  0.00    -0.041 A 
HETATM    3  C   UNK     0     137.396 134.698 186.577  0.00  0.00     0.076 A 
HETATM    4  C   UNK     0     137.269 134.304 188.058  0.00  0.00     0.109 A 
HETATM    5  C   UNK     0     139.884 134.725 188.400  0.00  0.00     0.067 A 
HETATM    6  C   UNK     0     138.504 134.317 188.963  0.00  0.00     0.003 A 
HETATM    7  C   UNK     0     140.979 134.337 190.803  0.00  0.00    -0.030 A 
HETATM    8  C   UNK     0     139.600 133.929 191.365  0.00  0.00    -0.031 A 
HETATM    9  C   UNK     0     138.364 133.923 190.432  0.00  0.00    -0.028 A 
HETATM   10  C   UNK     0     136.985 133.519 190.982  0.00  0.00     0.026 A 
HETATM   11  C   UNK     0     136.829 133.117 192.468  0.00  0.00     0.005 A 
HETATM   12  C   UNK     0     138.064 133.123 193.403  0.00  0.00     0.005 A 
HETATM   13  C   UNK     0     139.455 133.531 192.850  0.00  0.00     0.026 A 
HETATM   14  C   UNK     0     135.448 132.713 193.018  0.00  0.00     0.000 C 
HETATM   15  O   UNK     0     135.900 133.895 188.632  0.00  0.00    -0.195 OA
HETATM   16  C   UNK     0     141.119 134.734 189.321  0.00  0.00    -0.022 A 
HETATM   17  C   UNK     0     142.213 134.346 191.722  0.00  0.00     0.030 C 
HETATM   18  O   UNK     0     141.256 135.129 187.843  0.00  0.00     0.000 OA
ENDROOT
BRANCH   2  19
HETATM   19  C   UNK     0     138.905 135.504 184.518  0.00  0.00     0.022 C 
BRANCH  19  20
HETATM   20  C   UNK     0     137.797 135.122 183.519  0.00  0.00     0.004 C 
BRANCH  20  21
HETATM   21  C   UNK     0     137.665 133.665 183.037  0.00  0.00     0.000 C 
BRANCH  21  22
HETATM   22  C   UNK     0     138.502 133.170 181.844  0.00  0.00     0.000 C 
HETATM   23  C   UNK     0     139.897 133.769 181.581  0.00  0.00     0.000 C 
ENDBRANCH  21  22
ENDBRANCH  20  21
ENDBRANCH  19  20
ENDBRANCH   2  19
TORSDOF 4
ENDMDL
MODEL 8
REMARK VINA RESULT:      -7.3     11.213     14.302
REMARK  4 active torsions:
REMARK  status: ('A' for Active; 'I' for Inactive)
REMARK    1  A    between atoms: C_2  and  C_16 
REMARK    2  A    between atoms: C_16  and  C_17 
REMARK    3  A    between atoms: C_17  and  C_18 
REMARK    4  A    between atoms: C_18  and  C_19 
ROOT
HETATM    1  C   UNK     0     147.242 124.331 192.136  0.00  0.00    -0.026 A 
HETATM    2  C   UNK     0     146.334 123.152 192.544  0.00  0.00    -0.041 A 
HETATM    3  C   UNK     0     145.031 122.874 191.752  0.00  0.00     0.076 A 
HETATM    4  C   UNK     0     144.648 123.771 190.563  0.00  0.00     0.109 A 
HETATM    5  C   UNK     0     146.854 125.227 190.945  0.00  0.00     0.067 A 
HETATM    6  C   UNK     0     145.553 124.939 190.163  0.00  0.00     0.003 A 
HETATM    7  C   UNK     0     147.362 127.297 189.339  0.00  0.00    -0.030 A 
HETATM    8  C   UNK     0     146.061 127.010 188.557  0.00  0.00    -0.031 A 
HETATM    9  C   UNK     0     145.161 125.823 188.980  0.00  0.00    -0.028 A 
HETATM   10  C   UNK     0     143.863 125.528 188.208  0.00  0.00     0.026 A 
HETATM   11  C   UNK     0     143.453 126.414 187.008  0.00  0.00     0.005 A 
HETATM   12  C   UNK     0     144.353 127.602 186.584  0.00  0.00     0.005 A 
HETATM   13  C   UNK     0     145.663 127.901 187.362  0.00  0.00     0.026 A 
HETATM   14  C   UNK     0     142.154 126.118 186.237  0.00  0.00     0.000 C 
HETATM   15  O   UNK     0     143.354 123.496 189.775  0.00  0.00    -0.195 OA
HETATM   16  C   UNK     0     147.756 126.406 190.531  0.00  0.00    -0.022 A 
HETATM   17  C   UNK     0     148.263 128.475 188.926  0.00  0.00     0.030 C 
HETATM   18  O   UNK     0     148.147 125.515 191.720  0.00  0.00     0.000 OA
ENDROOT
BRANCH   2  19
HETATM   19  C   UNK     0     146.720 122.255 193.735  0.00  0.00     0.022 C 
BRANCH  19  20
HETATM   20  C   UNK     0     147.088 122.890 195.089  0.00  0.00     0.004 C 
BRANCH  20  21
HETATM   21  C   UNK     0     148.555 122.910 195.556  0.00  0.00     0.000 C 
BRANCH  21  22
HETATM   22  C   UNK     0     148.988 122.066 196.769  0.00  0.00     0.000 C 
HETATM   23  C   UNK     0     149.555 120.650 196.558  0.00  0.00     0.000 C 
ENDBRANCH  21  22
ENDBRANCH  20  21
ENDBRANCH  19  20
ENDBRANCH   2  19
TORSDOF 4
ENDMDL
MODEL 9
REMARK VINA RESULT:      -7.2     83.827     86.429
REMARK  4 active torsions:
REMARK  status: ('A' for Active; 'I' for Inactive)
REMARK    1  A    between atoms: C_2  and  C_16 
REMARK    2  A    between atoms: C_16  and  C_17 
REMARK    3  A    between atoms: C_17  and  C_18 
REMARK    4  A    between atoms: C_18  and  C_19 
ROOT
HETATM    1  C   UNK     0     107.083 151.050 128.007  0.00  0.00    -0.026 A 
HETATM    2  C   UNK     0     107.402 149.641 128.551  0.00  0.00    -0.041 A 
HETATM    3  C   UNK     0     108.563 149.449 129.559  0.00  0.00     0.076 A 
HETATM    4  C   UNK     0     109.393 150.662 130.015  0.00  0.00     0.109 A 
HETATM    5  C   UNK     0     107.917 152.260 128.467  0.00  0.00     0.067 A 
HETATM    6  C   UNK     0     109.072 152.057 129.472  0.00  0.00     0.003 A 
HETATM    7  C   UNK     0     108.444 154.876 128.392  0.00  0.00    -0.030 A 
HETATM    8  C   UNK     0     109.598 154.672 129.397  0.00  0.00    -0.031 A 
HETATM    9  C   UNK     0     109.904 153.252 129.933  0.00  0.00    -0.028 A 
HETATM   10  C   UNK     0     111.053 153.037 130.935  0.00  0.00     0.026 A 
HETATM   11  C   UNK     0     111.904 154.239 131.410  0.00  0.00     0.005 A 
HETATM   12  C   UNK     0     111.598 155.660 130.875  0.00  0.00     0.005 A 
HETATM   13  C   UNK     0     110.441 155.878 129.865  0.00  0.00     0.026 A 
HETATM   14  C   UNK     0     113.052 154.023 132.413  0.00  0.00     0.000 C 
HETATM   15  O   UNK     0     110.547 150.472 131.017  0.00  0.00    -0.195 OA
HETATM   16  C   UNK     0     107.605 153.670 127.928  0.00  0.00    -0.022 A 
HETATM   17  C   UNK     0     108.131 156.284 127.854  0.00  0.00     0.030 C 
HETATM   18  O   UNK     0     106.770 152.466 127.467  0.00  0.00     0.000 OA
ENDROOT
BRANCH   2  19
HETATM   19  C   UNK     0     106.569 148.429 128.093  0.00  0.00     0.022 C 
BRANCH  19  20
HETATM   20  C   UNK     0     105.192 148.157 128.728  0.00  0.00     0.004 C 
BRANCH  20  21
HETATM   21  C   UNK     0     105.103 147.467 130.102  0.00  0.00     0.000 C 
BRANCH  21  22
HETATM   22  C   UNK     0     106.323 146.718 130.668  0.00  0.00     0.000 C 
HETATM   23  C   UNK     0     106.803 147.003 132.104  0.00  0.00     0.000 C 
ENDBRANCH  21  22
ENDBRANCH  20  21
ENDBRANCH  19  20
ENDBRANCH   2  19
TORSDOF 4
ENDMDL
MODEL 10
REMARK VINA RESULT:      -7.1     85.801     88.485
REMARK  4 active torsions:
REMARK  status: ('A' for Active; 'I' for Inactive)
REMARK    1  A    between atoms: C_2  and  C_16 
REMARK    2  A    between atoms: C_16  and  C_17 
REMARK    3  A    between atoms: C_17  and  C_18 
REMARK    4  A    between atoms: C_18  and  C_19 
ROOT
HETATM    1  C   UNK     0     107.226 152.704 128.299  0.00  0.00    -0.026 A 
HETATM    2  C   UNK     0     107.770 151.447 127.588  0.00  0.00    -0.041 A 
HETATM    3  C   UNK     0     109.041 151.550 126.707  0.00  0.00     0.076 A 
HETATM    4  C   UNK     0     109.755 152.902 126.545  0.00  0.00     0.109 A 
HETATM    5  C   UNK     0     107.945 154.056 128.133  0.00  0.00     0.067 A 
HETATM    6  C   UNK     0     109.211 154.146 127.253  0.00  0.00     0.003 A 
HETATM    7  C   UNK     0     108.133 156.663 128.670  0.00  0.00    -0.030 A 
HETATM    8  C   UNK     0     109.398 156.753 127.790  0.00  0.00    -0.031 A 
HETATM    9  C   UNK     0     109.931 155.483 127.083  0.00  0.00    -0.028 A 
HETATM   10  C   UNK     0     111.191 155.561 126.203  0.00  0.00     0.026 A 
HETATM   11  C   UNK     0     111.930 156.908 126.022  0.00  0.00     0.005 A 
HETATM   12  C   UNK     0     111.399 158.180 126.729  0.00  0.00     0.005 A 
HETATM   13  C   UNK     0     110.128 158.103 127.616  0.00  0.00     0.026 A 
HETATM   14  C   UNK     0     113.191 156.985 125.142  0.00  0.00     0.000 C 
HETATM   15  O   UNK     0     111.018 153.005 125.670  0.00  0.00    -0.195 OA
HETATM   16  C   UNK     0     107.408 155.315 128.840  0.00  0.00    -0.022 A 
HETATM   17  C   UNK     0     107.596 157.921 129.376  0.00  0.00     0.030 C 
HETATM   18  O   UNK     0     106.687 153.969 129.009  0.00  0.00     0.000 OA
ENDROOT
BRANCH   2  19
HETATM   19  C   UNK     0     107.052 150.094 127.753  0.00  0.00     0.022 C 
BRANCH  19  20
HETATM   20  C   UNK     0     107.405 149.175 128.937  0.00  0.00     0.004 C 
BRANCH  20  21
HETATM   21  C   UNK     0     106.735 147.794 129.065  0.00  0.00     0.000 C 
BRANCH  21  22
HETATM   22  C   UNK     0     105.760 147.516 130.225  0.00  0.00     0.000 C 
HETATM   23  C   UNK     0     105.485 146.068 130.669  0.00  0.00     0.000 C 
ENDBRANCH  21  22
ENDBRANCH  20  21
ENDBRANCH  19  20
ENDBRANCH   2  19
TORSDOF 4
ENDMDL
