MODEL 1
REMARK VINA RESULT:      -7.0      0.000      0.000
REMARK  9 active torsions:
REMARK  status: ('A' for Active; 'I' for Inactive)
REMARK    1  A    between atoms: C_3  and  C_21 
REMARK    2  A    between atoms: C_4  and  C_14 
REMARK    3  A    between atoms: C_7  and  N_9 
REMARK       I    between atoms: N_9  and  C_10 
REMARK    4  A    between atoms: C_10  and  C_13 
REMARK    5  A    between atoms: C_13  and  C_15 
REMARK    6  A    between atoms: C_13  and  N_20 
REMARK    7  A    between atoms: C_14  and  S_24 
REMARK    8  A    between atoms: N_20  and  O_35 
REMARK    9  A    between atoms: S_24  and  C_25 
ROOT
HETATM    1  C   UNK     0     143.378 128.951 192.724  0.00  0.00     0.308 A 
HETATM    2  N   UNK     0     142.588 127.720 192.747  0.00  0.00    -0.297 N 
HETATM    3  C   UNK     0     143.338 126.324 192.781  0.00  0.00     0.121 A 
HETATM    4  C   UNK     0     144.856 126.265 192.789  0.00  0.00    -0.002 A 
HETATM    5  C   UNK     0     145.646 127.496 192.766  0.00  0.00     0.065 A 
HETATM    6  S   UNK     0     144.960 128.851 192.733  0.00  0.00    -0.194 SA
HETATM    7  C   UNK     0     142.082 129.782 192.699  0.00  0.00     0.125 A 
HETATM    8  C   UNK     0     141.292 128.551 192.723  0.00  0.00     0.211 A 
HETATM    9  O   UNK     0     139.774 128.610 192.715  0.00  0.00    -0.170 OA
ENDROOT
BRANCH   7  10
HETATM   10  N   UNK     0     141.396 131.137 192.666  0.00  0.00    -0.217 NA
HETATM   11  C   UNK     0     141.975 132.236 191.793  0.00  0.00     0.234 C 
HETATM   12  O   UNK     0     143.176 131.993 190.994  0.00  0.00    -0.167 OA
BRANCH  11  13
HETATM   13  C   UNK     0     141.289 133.591 191.760  0.00  0.00     0.165 C 
BRANCH  13  14
HETATM   14  C   UNK     0     139.908 133.775 191.002  0.00  0.00     0.091 A 
HETATM   15  C   UNK     0     139.716 135.169 190.376  0.00  0.00     0.108 A 
HETATM   16  S   UNK     0     138.335 135.149 189.696  0.00  0.00    -0.072 SA
HETATM   17  C   UNK     0     137.639 133.714 189.896  0.00  0.00     0.456 A 
HETATM   18  N   UNK     0     138.622 132.855 190.712  0.00  0.00    -0.229 NA
HETATM   19  N   UNK     0     136.256 133.287 189.370  0.00  0.00     0.656 N 
ENDBRANCH  13  14
BRANCH  13  20
HETATM   20  N   UNK     0     141.957 134.866 192.497  0.00  0.00    -0.126 NA
BRANCH  20  21
HETATM   21  O   UNK     0     142.764 134.683 193.797  0.00  0.00    -0.234 OA
HETATM   22  C   UNK     0     142.204 135.186 195.141  0.00  0.00     0.211 C 
ENDBRANCH  20  21
ENDBRANCH  13  20
ENDBRANCH  11  13
ENDBRANCH   7  10
BRANCH   3  23
HETATM   23  C   UNK     0     142.507 125.028 192.806  0.00  0.00     0.227 C 
HETATM   24  O   UNK     0     142.363 124.138 194.079  0.00  0.00    -0.643 OA
HETATM   25  O   UNK     0     141.759 124.567 191.486  0.00  0.00    -0.643 OA
ENDBRANCH   3  23
BRANCH   4  26
HETATM   26  C   UNK     0     145.500 124.846 192.824  0.00  0.00     0.089 C 
BRANCH  26  27
HETATM   27  S   UNK     0     146.206 124.388 191.559  0.00  0.00    -0.071 SA
BRANCH  27  28
HETATM   28  C   UNK     0     145.900 125.089 190.248  0.00  0.00     0.190 A 
HETATM   29  N   UNK     0     144.554 124.860 189.536  0.00  0.00    -0.192 NA
HETATM   30  C   UNK     0     144.247 125.562 188.224  0.00  0.00     0.260 A 
HETATM   31  C   UNK     0     145.308 126.541 187.569  0.00  0.00     0.274 A 
HETATM   32  O   UNK     0     142.901 125.333 187.512  0.00  0.00    -0.165 OA
HETATM   33  N   UNK     0     146.654 126.770 188.281  0.00  0.00    -0.136 NA
HETATM   34  O   UNK     0     145.002 127.243 186.257  0.00  0.00    -0.164 OA
HETATM   35  N   UNK     0     146.939 126.020 189.649  0.00  0.00    -0.225 N 
HETATM   36  C   UNK     0     148.285 126.249 190.361  0.00  0.00     0.156 C 
ENDBRANCH  27  28
ENDBRANCH  26  27
ENDBRANCH   4  26
TORSDOF 9
ENDMDL
MODEL 2
REMARK VINA RESULT:      -6.8      1.947      2.544
REMARK  9 active torsions:
REMARK  status: ('A' for Active; 'I' for Inactive)
REMARK    1  A    between atoms: C_3  and  C_21 
REMARK    2  A    between atoms: C_4  and  C_14 
REMARK    3  A    between atoms: C_7  and  N_9 
REMARK       I    between atoms: N_9  and  C_10 
REMARK    4  A    between atoms: C_10  and  C_13 
REMARK    5  A    between atoms: C_13  and  C_15 
REMARK    6  A    between atoms: C_13  and  N_20 
REMARK    7  A    between atoms: C_14  and  S_24 
REMARK    8  A    between atoms: N_20  and  O_35 
REMARK    9  A    between atoms: S_24  and  C_25 
ROOT
HETATM    1  C   UNK     0     143.944 130.033 192.544  0.00  0.00     0.308 A 
HETATM    2  N   UNK     0     143.269 128.754 192.768  0.00  0.00    -0.297 N 
HETATM    3  C   UNK     0     144.140 127.434 192.882  0.00  0.00     0.121 A 
HETATM    4  C   UNK     0     145.652 127.496 192.760  0.00  0.00    -0.002 A 
HETATM    5  C   UNK     0     146.327 128.775 192.536  0.00  0.00     0.065 A 
HETATM    6  S   UNK     0     145.524 130.059 192.422  0.00  0.00    -0.194 SA
HETATM    7  C   UNK     0     142.582 130.752 192.549  0.00  0.00     0.125 A 
HETATM    8  C   UNK     0     141.907 129.473 192.773  0.00  0.00     0.211 A 
HETATM    9  O   UNK     0     140.395 129.411 192.895  0.00  0.00    -0.170 OA
ENDROOT
BRANCH   7  10
HETATM   10  N   UNK     0     141.779 132.036 192.435  0.00  0.00    -0.217 NA
HETATM   11  C   UNK     0     142.005 132.944 191.239  0.00  0.00     0.234 C 
HETATM   12  O   UNK     0     142.981 132.586 190.210  0.00  0.00    -0.167 OA
BRANCH  11  13
HETATM   13  C   UNK     0     141.202 134.228 191.125  0.00  0.00     0.165 C 
BRANCH  13  14
HETATM   14  C   UNK     0     139.777 134.227 190.431  0.00  0.00     0.091 A 
HETATM   15  C   UNK     0     139.505 135.462 189.552  0.00  0.00     0.108 A 
HETATM   16  S   UNK     0     138.090 135.277 188.974  0.00  0.00    -0.072 SA
HETATM   17  C   UNK     0     137.453 133.896 189.498  0.00  0.00     0.456 A 
HETATM   18  N   UNK     0     138.508 133.240 190.408  0.00  0.00    -0.229 NA
HETATM   19  N   UNK     0     136.059 133.343 189.153  0.00  0.00     0.656 N 
ENDBRANCH  13  14
BRANCH  13  20
HETATM   20  N   UNK     0     141.790 135.616 191.710  0.00  0.00    -0.126 NA
BRANCH  20  21
HETATM   21  O   UNK     0     141.439 136.073 193.140  0.00  0.00    -0.234 OA
HETATM   22  C   UNK     0     140.526 135.213 194.033  0.00  0.00     0.211 C 
ENDBRANCH  20  21
ENDBRANCH  13  20
ENDBRANCH  11  13
ENDBRANCH   7  10
BRANCH   3  23
HETATM   23  C   UNK     0     143.430 126.088 193.118  0.00  0.00     0.227 C 
HETATM   24  O   UNK     0     143.915 125.048 194.173  0.00  0.00    -0.643 OA
HETATM   25  O   UNK     0     142.148 125.732 192.255  0.00  0.00    -0.643 OA
ENDBRANCH   3  23
BRANCH   4  26
HETATM   26  C   UNK     0     146.419 126.144 192.885  0.00  0.00     0.089 C 
BRANCH  26  27
HETATM   27  S   UNK     0     146.658 125.375 191.598  0.00  0.00    -0.071 SA
BRANCH  27  28
HETATM   28  C   UNK     0     145.592 124.411 191.106  0.00  0.00     0.190 A 
HETATM   29  N   UNK     0     145.475 123.000 191.712  0.00  0.00    -0.192 NA
HETATM   30  C   UNK     0     144.409 122.037 191.220  0.00  0.00     0.260 A 
HETATM   31  C   UNK     0     143.401 122.469 190.075  0.00  0.00     0.274 A 
HETATM   32  O   UNK     0     144.292 120.626 191.826  0.00  0.00    -0.165 OA
HETATM   33  N   UNK     0     143.518 123.880 189.469  0.00  0.00    -0.136 NA
HETATM   34  O   UNK     0     142.336 121.505 189.583  0.00  0.00    -0.164 OA
HETATM   35  N   UNK     0     144.643 124.858 190.008  0.00  0.00    -0.225 N 
HETATM   36  C   UNK     0     144.760 126.269 189.401  0.00  0.00     0.156 C 
ENDBRANCH  27  28
ENDBRANCH  26  27
ENDBRANCH   4  26
TORSDOF 9
ENDMDL
MODEL 3
REMARK VINA RESULT:      -6.8     59.864     63.769
REMARK  9 active torsions:
REMARK  status: ('A' for Active; 'I' for Inactive)
REMARK    1  A    between atoms: C_3  and  C_21 
REMARK    2  A    between atoms: C_4  and  C_14 
REMARK    3  A    between atoms: C_7  and  N_9 
REMARK       I    between atoms: N_9  and  C_10 
REMARK    4  A    between atoms: C_10  and  C_13 
REMARK    5  A    between atoms: C_13  and  C_15 
REMARK    6  A    between atoms: C_13  and  N_20 
REMARK    7  A    between atoms: C_14  and  S_24 
REMARK    8  A    between atoms: N_20  and  O_35 
REMARK    9  A    between atoms: S_24  and  C_25 
ROOT
HETATM    1  C   UNK     0     142.654 126.262 128.486  0.00  0.00     0.308 A 
HETATM    2  N   UNK     0     142.146 127.573 128.890  0.00  0.00    -0.297 N 
HETATM    3  C   UNK     0     140.918 128.198 128.105  0.00  0.00     0.121 A 
HETATM    4  C   UNK     0     140.278 127.446 126.951  0.00  0.00    -0.002 A 
HETATM    5  C   UNK     0     140.786 126.135 126.548  0.00  0.00     0.065 A 
HETATM    6  S   UNK     0     141.960 125.506 127.277  0.00  0.00    -0.194 SA
HETATM    7  C   UNK     0     143.721 126.334 129.594  0.00  0.00     0.125 A 
HETATM    8  C   UNK     0     143.213 127.645 129.998  0.00  0.00     0.211 A 
HETATM    9  O   UNK     0     143.853 128.397 131.152  0.00  0.00    -0.170 OA
ENDROOT
BRANCH   7  10
HETATM   10  N   UNK     0     144.895 125.705 130.323  0.00  0.00    -0.217 NA
HETATM   11  C   UNK     0     146.002 125.053 129.514  0.00  0.00     0.234 C 
HETATM   12  O   UNK     0     145.939 125.030 128.053  0.00  0.00    -0.167 OA
BRANCH  11  13
HETATM   13  C   UNK     0     147.177 124.424 130.244  0.00  0.00     0.165 C 
BRANCH  13  14
HETATM   14  C   UNK     0     146.944 123.241 131.273  0.00  0.00     0.091 A 
HETATM   15  C   UNK     0     147.680 123.422 132.614  0.00  0.00     0.108 A 
HETATM   16  S   UNK     0     147.332 122.187 133.467  0.00  0.00    -0.072 SA
HETATM   17  C   UNK     0     146.358 121.205 132.648  0.00  0.00     0.456 A 
HETATM   18  N   UNK     0     146.115 121.864 131.277  0.00  0.00    -0.229 NA
HETATM   19  N   UNK     0     145.782 119.866 133.143  0.00  0.00     0.656 N 
ENDBRANCH  13  14
BRANCH  13  20
HETATM   20  N   UNK     0     148.683 124.952 129.981  0.00  0.00    -0.126 NA
BRANCH  20  21
HETATM   21  O   UNK     0     149.289 126.059 130.864  0.00  0.00    -0.234 OA
HETATM   22  C   UNK     0     150.770 126.004 131.281  0.00  0.00     0.211 C 
ENDBRANCH  20  21
ENDBRANCH  13  20
ENDBRANCH  11  13
ENDBRANCH   7  10
BRANCH   3  23
HETATM   23  C   UNK     0     140.383 129.578 128.530  0.00  0.00     0.227 C 
HETATM   24  O   UNK     0     140.535 130.854 127.647  0.00  0.00    -0.643 OA
HETATM   25  O   UNK     0     139.644 129.721 129.926  0.00  0.00    -0.643 OA
ENDBRANCH   3  23
BRANCH   4  26
HETATM   26  C   UNK     0     139.077 128.144 126.243  0.00  0.00     0.089 C 
BRANCH  26  27
HETATM   27  S   UNK     0     139.363 128.797 124.903  0.00  0.00    -0.071 SA
BRANCH  27  28
HETATM   28  C   UNK     0     140.777 128.760 124.350  0.00  0.00     0.190 A 
HETATM   29  N   UNK     0     141.821 129.797 124.805  0.00  0.00    -0.192 NA
HETATM   30  C   UNK     0     143.235 129.759 124.252  0.00  0.00     0.260 A 
HETATM   31  C   UNK     0     143.658 128.651 123.200  0.00  0.00     0.274 A 
HETATM   32  O   UNK     0     144.279 130.796 124.707  0.00  0.00    -0.165 OA
HETATM   33  N   UNK     0     142.614 127.614 122.745  0.00  0.00    -0.136 NA
HETATM   34  O   UNK     0     145.072 128.614 122.647  0.00  0.00    -0.164 OA
HETATM   35  N   UNK     0     141.148 127.685 123.344  0.00  0.00    -0.225 N 
HETATM   36  C   UNK     0     140.104 126.647 122.889  0.00  0.00     0.156 C 
ENDBRANCH  27  28
ENDBRANCH  26  27
ENDBRANCH   4  26
TORSDOF 9
ENDMDL
MODEL 4
REMARK VINA RESULT:      -6.7     95.356     97.507
REMARK  9 active torsions:
REMARK  status: ('A' for Active; 'I' for Inactive)
REMARK    1  A    between atoms: C_3  and  C_21 
REMARK    2  A    between atoms: C_4  and  C_14 
REMARK    3  A    between atoms: C_7  and  N_9 
REMARK       I    between atoms: N_9  and  C_10 
REMARK    4  A    between atoms: C_10  and  C_13 
REMARK    5  A    between atoms: C_13  and  C_15 
REMARK    6  A    between atoms: C_13  and  N_20 
REMARK    7  A    between atoms: C_14  and  S_24 
REMARK    8  A    between atoms: N_20  and  O_35 
REMARK    9  A    between atoms: S_24  and  C_25 
ROOT
HETATM    1  C   UNK     0     116.712 172.978 107.694  0.00  0.00     0.308 A 
HETATM    2  N   UNK     0     116.741 174.436 107.815  0.00  0.00    -0.297 N 
HETATM    3  C   UNK     0     118.073 175.213 107.448  0.00  0.00     0.121 A 
HETATM    4  C   UNK     0     119.302 174.455 106.976  0.00  0.00    -0.002 A 
HETATM    5  C   UNK     0     119.273 172.997 106.855  0.00  0.00     0.065 A 
HETATM    6  S   UNK     0     118.014 172.221 107.198  0.00  0.00    -0.194 SA
HETATM    7  C   UNK     0     115.248 172.967 108.173  0.00  0.00     0.125 A 
HETATM    8  C   UNK     0     115.277 174.425 108.294  0.00  0.00     0.211 A 
HETATM    9  O   UNK     0     114.049 175.183 108.766  0.00  0.00    -0.170 OA
ENDROOT
BRANCH   7  10
HETATM   10  N   UNK     0     113.989 172.191 108.516  0.00  0.00    -0.217 NA
HETATM   11  C   UNK     0     114.071 170.682 108.669  0.00  0.00     0.234 C 
HETATM   12  O   UNK     0     115.346 169.986 108.488  0.00  0.00    -0.167 OA
BRANCH  11  13
HETATM   13  C   UNK     0     112.812 169.905 109.013  0.00  0.00     0.165 C 
BRANCH  13  14
HETATM   14  C   UNK     0     111.633 170.599 109.814  0.00  0.00     0.091 A 
HETATM   15  C   UNK     0     112.092 171.371 111.065  0.00  0.00     0.108 A 
HETATM   16  S   UNK     0     110.820 171.964 111.697  0.00  0.00    -0.072 SA
HETATM   17  C   UNK     0     109.529 171.560 110.828  0.00  0.00     0.456 A 
HETATM   18  N   UNK     0     110.037 170.707 109.651  0.00  0.00    -0.229 NA
HETATM   19  N   UNK     0     108.069 171.953 111.121  0.00  0.00     0.656 N 
ENDBRANCH  13  14
BRANCH  13  20
HETATM   20  N   UNK     0     112.655 168.359 108.566  0.00  0.00    -0.126 NA
BRANCH  20  21
HETATM   21  O   UNK     0     111.260 167.758 108.308  0.00  0.00    -0.234 OA
HETATM   22  C   UNK     0     110.472 167.092 109.452  0.00  0.00     0.211 C 
ENDBRANCH  20  21
ENDBRANCH  13  20
ENDBRANCH  11  13
ENDBRANCH   7  10
BRANCH   3  23
HETATM   23  C   UNK     0     118.104 176.747 107.576  0.00  0.00     0.227 C 
HETATM   24  O   UNK     0     118.406 177.479 108.919  0.00  0.00    -0.643 OA
HETATM   25  O   UNK     0     117.817 177.633 106.292  0.00  0.00    -0.643 OA
ENDBRANCH   3  23
BRANCH   4  26
HETATM   26  C   UNK     0     120.563 175.308 106.639  0.00  0.00     0.089 C 
BRANCH  26  27
HETATM   27  S   UNK     0     121.692 175.284 107.655  0.00  0.00    -0.071 SA
BRANCH  27  28
HETATM   28  C   UNK     0     121.573 176.131 108.910  0.00  0.00     0.190 A 
HETATM   29  N   UNK     0     121.043 175.516 110.219  0.00  0.00    -0.192 NA
HETATM   30  C   UNK     0     120.925 176.362 111.474  0.00  0.00     0.260 A 
HETATM   31  C   UNK     0     121.345 177.891 111.457  0.00  0.00     0.274 A 
HETATM   32  O   UNK     0     120.395 175.747 112.783  0.00  0.00    -0.165 OA
HETATM   33  N   UNK     0     121.875 178.505 110.148  0.00  0.00    -0.136 NA
HETATM   34  O   UNK     0     121.226 178.737 112.712  0.00  0.00    -0.164 OA
HETATM   35  N   UNK     0     121.985 177.591 108.857  0.00  0.00    -0.225 N 
HETATM   36  C   UNK     0     122.515 178.206 107.548  0.00  0.00     0.156 C 
ENDBRANCH  27  28
ENDBRANCH  26  27
ENDBRANCH   4  26
TORSDOF 9
ENDMDL
MODEL 5
REMARK VINA RESULT:      -6.6     37.184     40.145
REMARK  9 active torsions:
REMARK  status: ('A' for Active; 'I' for Inactive)
REMARK    1  A    between atoms: C_3  and  C_21 
REMARK    2  A    between atoms: C_4  and  C_14 
REMARK    3  A    between atoms: C_7  and  N_9 
REMARK       I    between atoms: N_9  and  C_10 
REMARK    4  A    between atoms: C_10  and  C_13 
REMARK    5  A    between atoms: C_13  and  C_15 
REMARK    6  A    between atoms: C_13  and  N_20 
REMARK    7  A    between atoms: C_14  and  S_24 
REMARK    8  A    between atoms: N_20  and  O_35 
REMARK    9  A    between atoms: S_24  and  C_25 
ROOT
HETATM    1  C   UNK     0     113.388 140.015 165.948  0.00  0.00     0.308 A 
HETATM    2  N   UNK     0     114.413 140.065 166.991  0.00  0.00    -0.297 N 
HETATM    3  C   UNK     0     115.935 140.205 166.569  0.00  0.00     0.121 A 
HETATM    4  C   UNK     0     116.323 140.286 165.103  0.00  0.00    -0.002 A 
HETATM    5  C   UNK     0     115.298 140.236 164.060  0.00  0.00     0.065 A 
HETATM    6  S   UNK     0     113.831 140.102 164.428  0.00  0.00    -0.194 SA
HETATM    7  C   UNK     0     112.296 139.889 167.027  0.00  0.00     0.125 A 
HETATM    8  C   UNK     0     113.321 139.939 168.070  0.00  0.00     0.211 A 
HETATM    9  O   UNK     0     112.933 139.858 169.536  0.00  0.00    -0.170 OA
ENDROOT
BRANCH   7  10
HETATM   10  N   UNK     0     110.829 139.755 167.395  0.00  0.00    -0.217 NA
HETATM   11  C   UNK     0     109.928 138.889 166.533  0.00  0.00     0.234 C 
HETATM   12  O   UNK     0     110.466 138.192 165.364  0.00  0.00    -0.167 OA
BRANCH  11  13
HETATM   13  C   UNK     0     108.461 138.755 166.901  0.00  0.00     0.165 C 
BRANCH  13  14
HETATM   14  C   UNK     0     108.020 138.641 168.420  0.00  0.00     0.091 A 
HETATM   15  C   UNK     0     106.744 139.431 168.765  0.00  0.00     0.108 A 
HETATM   16  S   UNK     0     106.483 139.197 170.264  0.00  0.00    -0.072 SA
HETATM   17  C   UNK     0     107.618 138.238 170.881  0.00  0.00     0.456 A 
HETATM   18  N   UNK     0     108.578 137.891 169.728  0.00  0.00    -0.229 NA
HETATM   19  N   UNK     0     107.719 137.764 172.341  0.00  0.00     0.656 N 
ENDBRANCH  13  14
BRANCH  13  20
HETATM   20  N   UNK     0     107.326 138.727 165.749  0.00  0.00    -0.126 NA
BRANCH  20  21
HETATM   21  O   UNK     0     106.880 137.392 165.123  0.00  0.00    -0.234 OA
HETATM   22  C   UNK     0     105.722 136.586 165.741  0.00  0.00     0.211 C 
ENDBRANCH  20  21
ENDBRANCH  13  20
ENDBRANCH  11  13
ENDBRANCH   7  10
BRANCH   3  23
HETATM   23  C   UNK     0     117.013 140.258 167.667  0.00  0.00     0.227 C 
HETATM   24  O   UNK     0     117.540 141.594 168.273  0.00  0.00    -0.643 OA
HETATM   25  O   UNK     0     117.624 138.900 168.212  0.00  0.00    -0.643 OA
ENDBRANCH   3  23
BRANCH   4  26
HETATM   26  C   UNK     0     117.844 140.422 164.790  0.00  0.00     0.089 C 
BRANCH  26  27
HETATM   27  S   UNK     0     118.223 140.645 163.336  0.00  0.00    -0.071 SA
BRANCH  27  28
HETATM   28  C   UNK     0     119.692 140.711 162.957  0.00  0.00     0.190 A 
HETATM   29  N   UNK     0     120.610 141.782 163.575  0.00  0.00    -0.192 NA
HETATM   30  C   UNK     0     122.079 141.848 163.196  0.00  0.00     0.260 A 
HETATM   31  C   UNK     0     122.690 140.815 162.160  0.00  0.00     0.274 A 
HETATM   32  O   UNK     0     122.998 142.919 163.813  0.00  0.00    -0.165 OA
HETATM   33  N   UNK     0     121.772 139.743 161.543  0.00  0.00    -0.136 NA
HETATM   34  O   UNK     0     124.159 140.880 161.782  0.00  0.00    -0.164 OA
HETATM   35  N   UNK     0     120.243 139.705 161.962  0.00  0.00    -0.225 N 
HETATM   36  C   UNK     0     119.325 138.634 161.345  0.00  0.00     0.156 C 
ENDBRANCH  27  28
ENDBRANCH  26  27
ENDBRANCH   4  26
TORSDOF 9
ENDMDL
MODEL 6
REMARK VINA RESULT:      -6.5     97.076     99.062
REMARK  9 active torsions:
REMARK  status: ('A' for Active; 'I' for Inactive)
REMARK    1  A    between atoms: C_3  and  C_21 
REMARK    2  A    between atoms: C_4  and  C_14 
REMARK    3  A    between atoms: C_7  and  N_9 
REMARK       I    between atoms: N_9  and  C_10 
REMARK    4  A    between atoms: C_10  and  C_13 
REMARK    5  A    between atoms: C_13  and  C_15 
REMARK    6  A    between atoms: C_13  and  N_20 
REMARK    7  A    between atoms: C_14  and  S_24 
REMARK    8  A    between atoms: N_20  and  O_35 
REMARK    9  A    between atoms: S_24  and  C_25 
ROOT
HETATM    1  C   UNK     0     116.349 174.849 108.063  0.00  0.00     0.308 A 
HETATM    2  N   UNK     0     116.252 173.400 107.888  0.00  0.00    -0.297 N 
HETATM    3  C   UNK     0     114.947 172.650 108.384  0.00  0.00     0.121 A 
HETATM    4  C   UNK     0     113.813 173.424 109.033  0.00  0.00    -0.002 A 
HETATM    5  C   UNK     0     113.910 174.873 109.208  0.00  0.00     0.065 A 
HETATM    6  S   UNK     0     115.146 175.624 108.745  0.00  0.00    -0.194 SA
HETATM    7  C   UNK     0     117.743 174.835 107.409  0.00  0.00     0.125 A 
HETATM    8  C   UNK     0     117.646 173.386 107.233  0.00  0.00     0.211 A 
HETATM    9  O   UNK     0     118.780 172.611 106.584  0.00  0.00    -0.170 OA
ENDROOT
BRANCH   7  10
HETATM   10  N   UNK     0     118.979 175.586 106.945  0.00  0.00    -0.217 NA
HETATM   11  C   UNK     0     119.626 176.592 107.881  0.00  0.00     0.234 C 
HETATM   12  O   UNK     0     119.067 176.834 109.211  0.00  0.00    -0.167 OA
BRANCH  11  13
HETATM   13  C   UNK     0     120.862 177.342 107.417  0.00  0.00     0.165 C 
BRANCH  13  14
HETATM   14  C   UNK     0     122.283 176.640 107.433  0.00  0.00     0.091 A 
HETATM   15  C   UNK     0     122.424 175.531 108.492  0.00  0.00     0.108 A 
HETATM   16  S   UNK     0     123.854 174.978 108.351  0.00  0.00    -0.072 SA
HETATM   17  C   UNK     0     124.635 175.754 107.178  0.00  0.00     0.456 A 
HETATM   18  N   UNK     0     123.653 176.792 106.604  0.00  0.00    -0.229 NA
HETATM   19  N   UNK     0     126.083 175.502 106.722  0.00  0.00     0.656 N 
ENDBRANCH  13  14
BRANCH  13  20
HETATM   20  N   UNK     0     120.747 178.870 106.899  0.00  0.00    -0.126 NA
BRANCH  20  21
HETATM   21  O   UNK     0     119.499 179.714 107.224  0.00  0.00    -0.234 OA
HETATM   22  C   UNK     0     119.372 180.431 108.581  0.00  0.00     0.211 C 
ENDBRANCH  20  21
ENDBRANCH  13  20
ENDBRANCH  11  13
ENDBRANCH   7  10
BRANCH   3  23
HETATM   23  C   UNK     0     114.845 171.124 108.199  0.00  0.00     0.227 C 
HETATM   24  O   UNK     0     113.762 170.450 107.303  0.00  0.00    -0.643 OA
HETATM   25  O   UNK     0     115.881 170.187 108.949  0.00  0.00    -0.643 OA
ENDBRANCH   3  23
BRANCH   4  26
HETATM   26  C   UNK     0     112.572 172.597 109.488  0.00  0.00     0.089 C 
BRANCH  26  27
HETATM   27  S   UNK     0     111.413 173.379 110.080  0.00  0.00    -0.071 SA
BRANCH  27  28
HETATM   28  C   UNK     0     110.262 173.790 109.179  0.00  0.00     0.190 A 
HETATM   29  N   UNK     0     110.469 174.856 108.086  0.00  0.00    -0.192 NA
HETATM   30  C   UNK     0     109.318 175.268 107.185  0.00  0.00     0.260 A 
HETATM   31  C   UNK     0     107.887 174.606 107.354  0.00  0.00     0.274 A 
HETATM   32  O   UNK     0     109.525 176.333 106.092  0.00  0.00    -0.165 OA
HETATM   33  N   UNK     0     107.681 173.540 108.446  0.00  0.00    -0.136 NA
HETATM   34  O   UNK     0     106.737 175.017 106.452  0.00  0.00    -0.164 OA
HETATM   35  N   UNK     0     108.905 173.136 109.369  0.00  0.00    -0.225 N 
HETATM   36  C   UNK     0     108.699 172.070 110.461  0.00  0.00     0.156 C 
ENDBRANCH  27  28
ENDBRANCH  26  27
ENDBRANCH   4  26
TORSDOF 9
ENDMDL
MODEL 7
REMARK VINA RESULT:      -6.5     62.576     65.812
REMARK  9 active torsions:
REMARK  status: ('A' for Active; 'I' for Inactive)
REMARK    1  A    between atoms: C_3  and  C_21 
REMARK    2  A    between atoms: C_4  and  C_14 
REMARK    3  A    between atoms: C_7  and  N_9 
REMARK       I    between atoms: N_9  and  C_10 
REMARK    4  A    between atoms: C_10  and  C_13 
REMARK    5  A    between atoms: C_13  and  C_15 
REMARK    6  A    between atoms: C_13  and  N_20 
REMARK    7  A    between atoms: C_14  and  S_24 
REMARK    8  A    between atoms: N_20  and  O_35 
REMARK    9  A    between atoms: S_24  and  C_25 
ROOT
HETATM    1  C   UNK     0     111.011 118.183 135.695  0.00  0.00     0.308 A 
HETATM    2  N   UNK     0     111.074 119.581 135.268  0.00  0.00    -0.297 N 
HETATM    3  C   UNK     0     110.338 120.685 136.136  0.00  0.00     0.121 A 
HETATM    4  C   UNK     0     109.579 120.297 137.393  0.00  0.00    -0.002 A 
HETATM    5  C   UNK     0     109.516 118.900 137.820  0.00  0.00     0.065 A 
HETATM    6  S   UNK     0     110.210 117.816 137.013  0.00  0.00    -0.194 SA
HETATM    7  C   UNK     0     111.866 117.774 134.481  0.00  0.00     0.125 A 
HETATM    8  C   UNK     0     111.928 119.172 134.054  0.00  0.00     0.211 A 
HETATM    9  O   UNK     0     112.687 119.560 132.797  0.00  0.00    -0.170 OA
ENDROOT
BRANCH   7  10
HETATM   10  N   UNK     0     112.559 116.691 133.674  0.00  0.00    -0.217 NA
HETATM   11  C   UNK     0     112.384 115.239 134.084  0.00  0.00     0.234 C 
HETATM   12  O   UNK     0     111.558 114.889 135.240  0.00  0.00    -0.167 OA
BRANCH  11  13
HETATM   13  C   UNK     0     113.077 114.155 133.277  0.00  0.00     0.165 C 
BRANCH  13  14
HETATM   14  C   UNK     0     114.477 114.437 132.588  0.00  0.00     0.091 A 
HETATM   15  C   UNK     0     114.374 115.094 131.200  0.00  0.00     0.108 A 
HETATM   16  S   UNK     0     115.820 115.284 130.704  0.00  0.00    -0.072 SA
HETATM   17  C   UNK     0     116.859 114.735 131.801  0.00  0.00     0.456 A 
HETATM   18  N   UNK     0     116.020 114.206 132.979  0.00  0.00    -0.229 NA
HETATM   19  N   UNK     0     118.394 114.741 131.690  0.00  0.00     0.656 N 
ENDBRANCH  13  14
BRANCH  13  20
HETATM   20  N   UNK     0     112.398 112.698 133.107  0.00  0.00    -0.126 NA
BRANCH  20  21
HETATM   21  O   UNK     0     111.243 112.485 132.109  0.00  0.00    -0.234 OA
HETATM   22  C   UNK     0     111.090 113.403 130.883  0.00  0.00     0.211 C 
ENDBRANCH  20  21
ENDBRANCH  13  20
ENDBRANCH  11  13
ENDBRANCH   7  10
BRANCH   3  23
HETATM   23  C   UNK     0     110.403 122.157 135.686  0.00  0.00     0.227 C 
HETATM   24  O   UNK     0     109.345 122.801 134.739  0.00  0.00    -0.643 OA
HETATM   25  O   UNK     0     111.595 123.067 136.201  0.00  0.00    -0.643 OA
ENDBRANCH   3  23
BRANCH   4  26
HETATM   26  C   UNK     0     108.889 121.455 138.177  0.00  0.00     0.089 C 
BRANCH  26  27
HETATM   27  S   UNK     0     108.391 121.128 139.574  0.00  0.00    -0.071 SA
BRANCH  27  28
HETATM   28  C   UNK     0     107.036 121.653 140.017  0.00  0.00     0.190 A 
HETATM   29  N   UNK     0     106.931 122.965 140.816  0.00  0.00    -0.192 NA
HETATM   30  C   UNK     0     105.577 123.491 141.259  0.00  0.00     0.260 A 
HETATM   31  C   UNK     0     104.251 122.697 140.904  0.00  0.00     0.274 A 
HETATM   32  O   UNK     0     105.471 124.803 142.058  0.00  0.00    -0.165 OA
HETATM   33  N   UNK     0     104.356 121.385 140.104  0.00  0.00    -0.136 NA
HETATM   34  O   UNK     0     102.896 123.222 141.346  0.00  0.00    -0.164 OA
HETATM   35  N   UNK     0     105.787 120.867 139.659  0.00  0.00    -0.225 N 
HETATM   36  C   UNK     0     105.892 119.555 138.860  0.00  0.00     0.156 C 
ENDBRANCH  27  28
ENDBRANCH  26  27
ENDBRANCH   4  26
TORSDOF 9
ENDMDL
MODEL 8
REMARK VINA RESULT:      -6.4     52.786     56.022
REMARK  9 active torsions:
REMARK  status: ('A' for Active; 'I' for Inactive)
REMARK    1  A    between atoms: C_3  and  C_21 
REMARK    2  A    between atoms: C_4  and  C_14 
REMARK    3  A    between atoms: C_7  and  N_9 
REMARK       I    between atoms: N_9  and  C_10 
REMARK    4  A    between atoms: C_10  and  C_13 
REMARK    5  A    between atoms: C_13  and  C_15 
REMARK    6  A    between atoms: C_13  and  N_20 
REMARK    7  A    between atoms: C_14  and  S_24 
REMARK    8  A    between atoms: N_20  and  O_35 
REMARK    9  A    between atoms: S_24  and  C_25 
ROOT
HETATM    1  C   UNK     0     112.011 109.879 150.542  0.00  0.00     0.308 A 
HETATM    2  N   UNK     0     110.573 110.098 150.384  0.00  0.00    -0.297 N 
HETATM    3  C   UNK     0     110.061 111.508 149.870  0.00  0.00     0.121 A 
HETATM    4  C   UNK     0     111.049 112.615 149.546  0.00  0.00    -0.002 A 
HETATM    5  C   UNK     0     112.486 112.396 149.703  0.00  0.00     0.065 A 
HETATM    6  S   UNK     0     113.012 111.058 150.194  0.00  0.00    -0.194 SA
HETATM    7  C   UNK     0     111.739 108.441 151.020  0.00  0.00     0.125 A 
HETATM    8  C   UNK     0     110.301 108.660 150.863  0.00  0.00     0.211 A 
HETATM    9  O   UNK     0     109.313 107.553 151.186  0.00  0.00    -0.170 OA
ENDROOT
BRANCH   7  10
HETATM   10  N   UNK     0     112.265 107.103 151.511  0.00  0.00    -0.217 NA
HETATM   11  C   UNK     0     112.703 106.065 150.493  0.00  0.00     0.234 C 
HETATM   12  O   UNK     0     112.621 106.350 149.060  0.00  0.00    -0.167 OA
BRANCH  11  13
HETATM   13  C   UNK     0     113.229 104.727 150.983  0.00  0.00     0.165 C 
BRANCH  13  14
HETATM   14  C   UNK     0     113.171 103.449 150.047  0.00  0.00     0.091 A 
HETATM   15  C   UNK     0     112.043 102.462 150.399  0.00  0.00     0.108 A 
HETATM   16  S   UNK     0     112.152 101.303 149.391  0.00  0.00    -0.072 SA
HETATM   17  C   UNK     0     113.375 101.562 148.380  0.00  0.00     0.456 A 
HETATM   18  N   UNK     0     114.012 102.903 148.790  0.00  0.00    -0.229 NA
HETATM   19  N   UNK     0     113.819 100.644 147.227  0.00  0.00     0.656 N 
ENDBRANCH  13  14
BRANCH  13  20
HETATM   20  N   UNK     0     113.855 104.586 152.467  0.00  0.00    -0.126 NA
BRANCH  20  21
HETATM   21  O   UNK     0     115.349 104.870 152.715  0.00  0.00    -0.234 OA
HETATM   22  C   UNK     0     115.960 106.231 152.333  0.00  0.00     0.211 C 
ENDBRANCH  20  21
ENDBRANCH  13  20
ENDBRANCH  11  13
ENDBRANCH   7  10
BRANCH   3  23
HETATM   23  C   UNK     0     108.547 111.739 149.703  0.00  0.00     0.227 C 
HETATM   24  O   UNK     0     107.675 110.941 148.687  0.00  0.00    -0.643 OA
HETATM   25  O   UNK     0     107.832 112.834 150.600  0.00  0.00    -0.643 OA
ENDBRANCH   3  23
BRANCH   4  26
HETATM   26  C   UNK     0     110.447 113.964 149.047  0.00  0.00     0.089 C 
BRANCH  26  27
HETATM   27  S   UNK     0     111.286 115.209 149.276  0.00  0.00    -0.071 SA
BRANCH  27  28
HETATM   28  C   UNK     0     112.359 115.573 148.265  0.00  0.00     0.190 A 
HETATM   29  N   UNK     0     112.100 115.400 146.756  0.00  0.00    -0.192 NA
HETATM   30  C   UNK     0     113.173 115.763 145.745  0.00  0.00     0.260 A 
HETATM   31  C   UNK     0     114.575 116.326 146.226  0.00  0.00     0.274 A 
HETATM   32  O   UNK     0     112.915 115.591 144.236  0.00  0.00    -0.165 OA
HETATM   33  N   UNK     0     114.834 116.499 147.734  0.00  0.00    -0.136 NA
HETATM   34  O   UNK     0     115.648 116.689 145.215  0.00  0.00    -0.164 OA
HETATM   35  N   UNK     0     113.690 116.109 148.761  0.00  0.00    -0.225 N 
HETATM   36  C   UNK     0     113.949 116.282 150.270  0.00  0.00     0.156 C 
ENDBRANCH  27  28
ENDBRANCH  26  27
ENDBRANCH   4  26
TORSDOF 9
ENDMDL
MODEL 9
REMARK VINA RESULT:      -6.3     13.471     19.063
REMARK  9 active torsions:
REMARK  status: ('A' for Active; 'I' for Inactive)
REMARK    1  A    between atoms: C_3  and  C_21 
REMARK    2  A    between atoms: C_4  and  C_14 
REMARK    3  A    between atoms: C_7  and  N_9 
REMARK       I    between atoms: N_9  and  C_10 
REMARK    4  A    between atoms: C_10  and  C_13 
REMARK    5  A    between atoms: C_13  and  C_15 
REMARK    6  A    between atoms: C_13  and  N_20 
REMARK    7  A    between atoms: C_14  and  S_24 
REMARK    8  A    between atoms: N_20  and  O_35 
REMARK    9  A    between atoms: S_24  and  C_25 
ROOT
HETATM    1  C   UNK     0     158.565 128.495 183.823  0.00  0.00     0.308 A 
HETATM    2  N   UNK     0     158.673 128.372 185.277  0.00  0.00    -0.297 N 
HETATM    3  C   UNK     0     158.051 129.506 186.193  0.00  0.00     0.121 A 
HETATM    4  C   UNK     0     157.352 130.703 185.572  0.00  0.00    -0.002 A 
HETATM    5  C   UNK     0     157.244 130.826 184.118  0.00  0.00     0.065 A 
HETATM    6  S   UNK     0     157.829 129.758 183.209  0.00  0.00    -0.194 SA
HETATM    7  C   UNK     0     159.319 127.163 183.654  0.00  0.00     0.125 A 
HETATM    8  C   UNK     0     159.427 127.040 185.108  0.00  0.00     0.211 A 
HETATM    9  O   UNK     0     160.126 125.843 185.730  0.00  0.00    -0.170 OA
ENDROOT
BRANCH   7  10
HETATM   10  N   UNK     0     159.904 126.096 182.746  0.00  0.00    -0.217 NA
HETATM   11  C   UNK     0     159.148 125.702 181.488  0.00  0.00     0.234 C 
HETATM   12  O   UNK     0     157.875 126.343 181.157  0.00  0.00    -0.167 OA
BRANCH  11  13
HETATM   13  C   UNK     0     159.733 124.635 180.580  0.00  0.00     0.165 C 
BRANCH  13  14
HETATM   14  C   UNK     0     159.080 124.337 179.166  0.00  0.00     0.091 A 
HETATM   15  C   UNK     0     160.065 124.433 177.986  0.00  0.00     0.108 A 
HETATM   16  S   UNK     0     159.252 124.114 176.718  0.00  0.00    -0.072 SA
HETATM   17  C   UNK     0     157.721 123.810 177.103  0.00  0.00     0.456 A 
HETATM   18  N   UNK     0     157.613 123.949 178.633  0.00  0.00    -0.229 NA
HETATM   19  N   UNK     0     156.586 123.449 176.127  0.00  0.00     0.656 N 
ENDBRANCH  13  14
BRANCH  13  20
HETATM   20  N   UNK     0     161.030 123.786 181.041  0.00  0.00    -0.126 NA
BRANCH  20  21
HETATM   21  O   UNK     0     160.871 122.534 181.925  0.00  0.00    -0.234 OA
HETATM   22  C   UNK     0     160.310 121.226 181.334  0.00  0.00     0.211 C 
ENDBRANCH  20  21
ENDBRANCH  13  20
ENDBRANCH  11  13
ENDBRANCH   7  10
BRANCH   3  23
HETATM   23  C   UNK     0     158.164 129.377 187.724  0.00  0.00     0.227 C 
HETATM   24  O   UNK     0     159.284 130.077 188.552  0.00  0.00    -0.643 OA
HETATM   25  O   UNK     0     157.101 128.495 188.503  0.00  0.00    -0.643 OA
ENDBRANCH   3  23
BRANCH   4  26
HETATM   26  C   UNK     0     156.774 131.764 186.557  0.00  0.00     0.089 C 
BRANCH  26  27
HETATM   27  S   UNK     0     155.281 131.698 186.828  0.00  0.00    -0.071 SA
BRANCH  27  28
HETATM   28  C   UNK     0     154.355 132.652 186.093  0.00  0.00     0.190 A 
HETATM   29  N   UNK     0     154.415 134.166 186.369  0.00  0.00    -0.192 NA
HETATM   30  C   UNK     0     153.489 135.119 185.634  0.00  0.00     0.260 A 
HETATM   31  C   UNK     0     152.446 134.570 184.573  0.00  0.00     0.274 A 
HETATM   32  O   UNK     0     153.549 136.633 185.910  0.00  0.00    -0.165 OA
HETATM   33  N   UNK     0     152.386 133.056 184.298  0.00  0.00    -0.136 NA
HETATM   34  O   UNK     0     151.520 135.524 183.839  0.00  0.00    -0.164 OA
HETATM   35  N   UNK     0     153.369 132.091 185.083  0.00  0.00    -0.225 N 
HETATM   36  C   UNK     0     153.308 130.577 184.808  0.00  0.00     0.156 C 
ENDBRANCH  27  28
ENDBRANCH  26  27
ENDBRANCH   4  26
TORSDOF 9
ENDMDL
MODEL 10
REMARK VINA RESULT:      -6.3      3.404      4.223
REMARK  9 active torsions:
REMARK  status: ('A' for Active; 'I' for Inactive)
REMARK    1  A    between atoms: C_3  and  C_21 
REMARK    2  A    between atoms: C_4  and  C_14 
REMARK    3  A    between atoms: C_7  and  N_9 
REMARK       I    between atoms: N_9  and  C_10 
REMARK    4  A    between atoms: C_10  and  C_13 
REMARK    5  A    between atoms: C_13  and  C_15 
REMARK    6  A    between atoms: C_13  and  N_20 
REMARK    7  A    between atoms: C_14  and  S_24 
REMARK    8  A    between atoms: N_20  and  O_35 
REMARK    9  A    between atoms: S_24  and  C_25 
ROOT
HETATM    1  C   UNK     0     145.101 129.485 190.552  0.00  0.00     0.308 A 
HETATM    2  N   UNK     0     144.687 128.083 190.621  0.00  0.00    -0.297 N 
HETATM    3  C   UNK     0     145.575 126.981 189.906  0.00  0.00     0.121 A 
HETATM    4  C   UNK     0     146.838 127.375 189.160  0.00  0.00    -0.002 A 
HETATM    5  C   UNK     0     147.253 128.777 189.091  0.00  0.00     0.065 A 
HETATM    6  S   UNK     0     146.426 129.858 189.764  0.00  0.00    -0.194 SA
HETATM    7  C   UNK     0     143.872 129.889 191.387  0.00  0.00     0.125 A 
HETATM    8  C   UNK     0     143.458 128.488 191.456  0.00  0.00     0.211 A 
HETATM    9  O   UNK     0     142.195 128.094 192.202  0.00  0.00    -0.170 OA
ENDROOT
BRANCH   7  10
HETATM   10  N   UNK     0     143.046 130.971 192.060  0.00  0.00    -0.217 NA
HETATM   11  C   UNK     0     142.703 132.229 191.282  0.00  0.00     0.234 C 
HETATM   12  O   UNK     0     143.162 132.397 189.903  0.00  0.00    -0.167 OA
BRANCH  11  13
HETATM   13  C   UNK     0     141.876 133.311 191.955  0.00  0.00     0.165 C 
BRANCH  13  14
HETATM   14  C   UNK     0     140.358 133.529 191.554  0.00  0.00     0.091 A 
HETATM   15  C   UNK     0     140.119 134.744 190.638  0.00  0.00     0.108 A 
HETATM   16  S   UNK     0     138.604 134.786 190.365  0.00  0.00    -0.072 SA
HETATM   17  C   UNK     0     137.869 133.574 191.123  0.00  0.00     0.456 A 
HETATM   18  N   UNK     0     138.966 132.788 191.867  0.00  0.00    -0.229 NA
HETATM   19  N   UNK     0     136.362 133.263 191.106  0.00  0.00     0.656 N 
ENDBRANCH  13  14
BRANCH  13  20
HETATM   20  N   UNK     0     142.532 134.256 193.092  0.00  0.00    -0.126 NA
BRANCH  20  21
HETATM   21  O   UNK     0     141.941 135.648 193.387  0.00  0.00    -0.234 OA
HETATM   22  C   UNK     0     140.792 135.811 194.400  0.00  0.00     0.211 C 
ENDBRANCH  20  21
ENDBRANCH  13  20
ENDBRANCH  11  13
ENDBRANCH   7  10
BRANCH   3  23
HETATM   23  C   UNK     0     145.139 125.506 189.979  0.00  0.00     0.227 C 
HETATM   24  O   UNK     0     144.311 124.812 188.855  0.00  0.00    -0.643 OA
HETATM   25  O   UNK     0     145.544 124.645 191.247  0.00  0.00    -0.643 OA
ENDBRANCH   3  23
BRANCH   4  26
HETATM   26  C   UNK     0     147.643 126.220 188.490  0.00  0.00     0.089 C 
BRANCH  26  27
HETATM   27  S   UNK     0     149.049 125.979 189.011  0.00  0.00    -0.071 SA
BRANCH  27  28
HETATM   28  C   UNK     0     150.231 126.261 188.100  0.00  0.00     0.190 A 
HETATM   29  N   UNK     0     150.594 125.283 186.966  0.00  0.00    -0.192 NA
HETATM   30  C   UNK     0     151.776 125.565 186.055  0.00  0.00     0.260 A 
HETATM   31  C   UNK     0     152.654 126.869 186.257  0.00  0.00     0.274 A 
HETATM   32  O   UNK     0     152.138 124.587 184.922  0.00  0.00    -0.165 OA
HETATM   33  N   UNK     0     152.292 127.847 187.391  0.00  0.00    -0.136 NA
HETATM   34  O   UNK     0     153.836 127.151 185.346  0.00  0.00    -0.164 OA
HETATM   35  N   UNK     0     151.051 127.520 188.322  0.00  0.00    -0.225 N 
HETATM   36  C   UNK     0     150.689 128.498 189.455  0.00  0.00     0.156 C 
ENDBRANCH  27  28
ENDBRANCH  26  27
ENDBRANCH   4  26
TORSDOF 9
ENDMDL
