REMARK  1 active torsions:
REMARK  status: ('A' for Active; 'I' for Inactive)
REMARK    1  A    between atoms: N_4  and  C_11 
ROOT
HETATM    1 Cl   UNK     0       5.259  -4.404   0.000  0.00  0.00    -0.091 Cl
HETATM    2  O   UNK     0       9.543   2.155   0.000  0.00  0.00    -0.171 OA
HETATM    3  O   UNK     0       4.873   4.404   0.000  0.00  0.00    -0.171 OA
HETATM    4  N   UNK     0       7.699   0.311   0.000  0.00  0.00    -0.295 N 
HETATM    5  N   UNK     0       4.581   1.812   0.000  0.00  0.00    -0.307 N 
HETATM    6  C   UNK     0       6.312  -0.357   0.000  0.00  0.00     0.059 A 
HETATM    7  C   UNK     0       4.924   0.311   0.000  0.00  0.00     0.052 A 
HETATM    8  C   UNK     0       7.082   3.016   0.000  0.00  0.00     0.091 A 
HETATM    9  C   UNK     0       8.042   1.812   0.000  0.00  0.00     0.201 A 
HETATM   10  C   UNK     0       5.542   3.016   0.000  0.00  0.00     0.198 A 
HETATM   11  C   UNK     0       6.456  -1.955   0.000  0.00  0.00     0.079 A 
HETATM   12  C   UNK     0       3.585  -0.572   0.000  0.00  0.00     0.050 A 
HETATM   13  C   UNK     0       3.080   2.155   0.000  0.00  0.00     0.132 C 
HETATM   14  C   UNK     0       5.138  -2.869   0.000  0.00  0.00     0.020 A 
HETATM   15  C   UNK     0       3.692  -2.173   0.000  0.00  0.00     0.040 A 
ENDROOT
BRANCH   4  16
HETATM   16  C   UNK     0       8.903  -0.649   0.000  0.00  0.00     0.021 A 
HETATM   17  C   UNK     0      10.337  -0.087   0.000  0.00  0.00     0.040 A 
HETATM   18  C   UNK     0      11.541  -1.047   0.000  0.00  0.00     0.006 A 
HETATM   19  C   UNK     0      11.311  -2.569   0.000  0.00  0.00     0.001 A 
HETATM   20  C   UNK     0       9.877  -3.132   0.000  0.00  0.00     0.006 A 
HETATM   21  C   UNK     0       8.674  -2.172   0.000  0.00  0.00     0.040 A 
ENDBRANCH   4  16
TORSDOF 1
