MODEL 1
REMARK VINA RESULT:      -6.9      0.000      0.000
REMARK  1 active torsions:
REMARK  status: ('A' for Active; 'I' for Inactive)
REMARK    1  A    between atoms: N_7  and  C_15 
ROOT
HETATM    1 Cl   UNK     0     112.828 171.983 109.194  0.00  0.00    -0.143 Cl
HETATM    2  O   UNK     0     119.540 174.429 106.844  0.00  0.00    -0.168 OA
HETATM    3  N   UNK     0     117.713 172.634 107.334  0.00  0.00    -0.223 NA
HETATM    4  N   UNK     0     115.881 175.360 108.424  0.00  0.00    -0.240 NA
HETATM    5  C   UNK     0     115.137 172.687 108.367  0.00  0.00     0.042 A 
HETATM    6  C   UNK     0     116.383 171.997 107.780  0.00  0.00     0.064 A 
HETATM    7  C   UNK     0     114.914 174.183 108.654  0.00  0.00     0.080 A 
HETATM    8  C   UNK     0     113.542 174.552 109.248  0.00  0.00     0.001 A 
HETATM    9  C   UNK     0     113.839 171.836 108.772  0.00  0.00     0.067 A 
HETATM   10  C   UNK     0     116.416 170.409 107.557  0.00  0.00     0.052 A 
HETATM   11  C   UNK     0     117.310 175.331 107.851  0.00  0.00     0.146 A 
HETATM   12  C   UNK     0     113.838 170.246 108.562  0.00  0.00     0.114 A 
HETATM   13  C   UNK     0     118.125 174.117 107.366  0.00  0.00     0.232 A 
HETATM   14  C   UNK     0     115.135 169.528 107.951  0.00  0.00     0.058 A 
HETATM   15  C   UNK     0     112.499 173.452 109.519  0.00  0.00     0.022 A 
HETATM   16  C   UNK     0     113.214 176.022 109.573  0.00  0.00     0.028 A 
HETATM   17  C   UNK     0     111.127 173.821 110.114  0.00  0.00     0.037 A 
HETATM   18  C   UNK     0     111.841 176.390 110.168  0.00  0.00     0.005 A 
HETATM   19  C   UNK     0     110.799 175.290 110.438  0.00  0.00     0.006 A 
ENDROOT
BRANCH  12  20
HETATM   20  N   UNK     0     112.599 169.414 108.945  0.00  0.00    -0.117 N 
HETATM   21  O   UNK     0     112.291 169.131 110.427  0.00  0.00    -0.532 OA
HETATM   22  O   UNK     0     111.671 168.866 107.846  0.00  0.00    -0.532 OA
ENDBRANCH  12  20
TORSDOF 1
ENDMDL
MODEL 2
REMARK VINA RESULT:      -6.9     81.981     83.340
REMARK  1 active torsions:
REMARK  status: ('A' for Active; 'I' for Inactive)
REMARK    1  A    between atoms: N_7  and  C_15 
ROOT
HETATM    1 Cl   UNK     0     152.617 131.584 168.287  0.00  0.00    -0.143 Cl
HETATM    2  O   UNK     0     159.391 128.320 168.371  0.00  0.00    -0.168 OA
HETATM    3  N   UNK     0     157.134 129.063 167.297  0.00  0.00    -0.223 NA
HETATM    4  N   UNK     0     156.527 130.391 170.433  0.00  0.00    -0.240 NA
HETATM    5  C   UNK     0     154.898 130.443 168.188  0.00  0.00     0.042 A 
HETATM    6  C   UNK     0     155.736 129.689 167.138  0.00  0.00     0.064 A 
HETATM    7  C   UNK     0     155.249 130.755 169.654  0.00  0.00     0.080 A 
HETATM    8  C   UNK     0     154.183 131.534 170.445  0.00  0.00     0.001 A 
HETATM    9  C   UNK     0     153.449 131.025 167.819  0.00  0.00     0.067 A 
HETATM   10  C   UNK     0     155.185 129.466 165.649  0.00  0.00     0.052 A 
HETATM   11  C   UNK     0     157.768 129.625 169.939  0.00  0.00     0.146 A 
HETATM   12  C   UNK     0     152.867 130.820 166.340  0.00  0.00     0.114 A 
HETATM   13  C   UNK     0     158.039 129.034 168.543  0.00  0.00     0.232 A 
HETATM   14  C   UNK     0     153.740 130.036 165.247  0.00  0.00     0.058 A 
HETATM   15  C   UNK     0     152.866 131.949 169.762  0.00  0.00     0.022 A 
HETATM   16  C   UNK     0     154.433 131.899 171.921  0.00  0.00     0.028 A 
HETATM   17  C   UNK     0     151.800 132.728 170.554  0.00  0.00     0.037 A 
HETATM   18  C   UNK     0     153.366 132.679 172.712  0.00  0.00     0.005 A 
HETATM   19  C   UNK     0     152.050 133.093 172.029  0.00  0.00     0.006 A 
ENDROOT
BRANCH  12  20
HETATM   20  N   UNK     0     151.477 131.374 165.970  0.00  0.00    -0.117 N 
HETATM   21  O   UNK     0     150.230 130.481 166.113  0.00  0.00    -0.532 OA
HETATM   22  O   UNK     0     151.336 132.819 165.457  0.00  0.00    -0.532 OA
ENDBRANCH  12  20
TORSDOF 1
ENDMDL
MODEL 3
REMARK VINA RESULT:      -6.9      2.385      3.093
REMARK  1 active torsions:
REMARK  status: ('A' for Active; 'I' for Inactive)
REMARK    1  A    between atoms: N_7  and  C_15 
ROOT
HETATM    1 Cl   UNK     0     115.071 173.978 108.398  0.00  0.00    -0.143 Cl
HETATM    2  O   UNK     0     121.915 176.040 106.061  0.00  0.00    -0.168 OA
HETATM    3  N   UNK     0     120.024 174.342 106.645  0.00  0.00    -0.223 NA
HETATM    4  N   UNK     0     118.239 177.197 107.439  0.00  0.00    -0.240 NA
HETATM    5  C   UNK     0     117.422 174.549 107.587  0.00  0.00     0.042 A 
HETATM    6  C   UNK     0     118.665 173.779 107.101  0.00  0.00     0.064 A 
HETATM    7  C   UNK     0     117.233 176.070 107.738  0.00  0.00     0.080 A 
HETATM    8  C   UNK     0     115.855 176.523 108.255  0.00  0.00     0.001 A 
HETATM    9  C   UNK     0     116.089 173.769 108.022  0.00  0.00     0.067 A 
HETATM   10  C   UNK     0     118.660 172.178 107.016  0.00  0.00     0.052 A 
HETATM   11  C   UNK     0     119.683 177.082 106.916  0.00  0.00     0.146 A 
HETATM   12  C   UNK     0     116.050 172.168 107.949  0.00  0.00     0.114 A 
HETATM   13  C   UNK     0     120.477 175.811 106.562  0.00  0.00     0.232 A 
HETATM   14  C   UNK     0     117.344 171.367 107.443  0.00  0.00     0.058 A 
HETATM   15  C   UNK     0     114.774 175.478 108.586  0.00  0.00     0.022 A 
HETATM   16  C   UNK     0     115.559 178.023 108.443  0.00  0.00     0.028 A 
HETATM   17  C   UNK     0     113.396 175.932 109.103  0.00  0.00     0.037 A 
HETATM   18  C   UNK     0     114.181 178.477 108.960  0.00  0.00     0.005 A 
HETATM   19  C   UNK     0     113.100 177.431 109.290  0.00  0.00     0.006 A 
ENDROOT
BRANCH  12  20
HETATM   20  N   UNK     0     114.778 171.404 108.363  0.00  0.00    -0.117 N 
HETATM   21  O   UNK     0     114.435 171.231 109.854  0.00  0.00    -0.532 OA
HETATM   22  O   UNK     0     113.850 170.814 107.285  0.00  0.00    -0.532 OA
ENDBRANCH  12  20
TORSDOF 1
ENDMDL
MODEL 4
REMARK VINA RESULT:      -6.9     60.767     62.365
REMARK  1 active torsions:
REMARK  status: ('A' for Active; 'I' for Inactive)
REMARK    1  A    between atoms: N_7  and  C_15 
ROOT
HETATM    1 Cl   UNK     0     159.904 159.755 147.077  0.00  0.00    -0.143 Cl
HETATM    2  O   UNK     0     167.284 160.803 146.085  0.00  0.00    -0.168 OA
HETATM    3  N   UNK     0     164.803 160.557 145.320  0.00  0.00    -0.223 NA
HETATM    4  N   UNK     0     164.207 160.153 148.704  0.00  0.00    -0.240 NA
HETATM    5  C   UNK     0     162.386 160.120 146.610  0.00  0.00     0.042 A 
HETATM    6  C   UNK     0     163.277 160.355 145.376  0.00  0.00     0.064 A 
HETATM    7  C   UNK     0     162.799 160.030 148.090  0.00  0.00     0.080 A 
HETATM    8  C   UNK     0     161.654 159.786 149.090  0.00  0.00     0.001 A 
HETATM    9  C   UNK     0     160.800 159.931 146.455  0.00  0.00     0.067 A 
HETATM   10  C   UNK     0     162.646 160.416 143.903  0.00  0.00     0.052 A 
HETATM   11  C   UNK     0     165.548 160.395 147.988  0.00  0.00     0.146 A 
HETATM   12  C   UNK     0     160.135 159.986 144.997  0.00  0.00     0.114 A 
HETATM   13  C   UNK     0     165.814 160.575 146.481  0.00  0.00     0.232 A 
HETATM   14  C   UNK     0     161.064 160.231 143.712  0.00  0.00     0.058 A 
HETATM   15  C   UNK     0     160.206 159.648 148.584  0.00  0.00     0.022 A 
HETATM   16  C   UNK     0     161.956 159.679 150.597  0.00  0.00     0.028 A 
HETATM   17  C   UNK     0     159.060 159.404 149.584  0.00  0.00     0.037 A 
HETATM   18  C   UNK     0     160.810 159.434 151.596  0.00  0.00     0.005 A 
HETATM   19  C   UNK     0     159.363 159.297 151.090  0.00  0.00     0.006 A 
ENDROOT
BRANCH  12  20
HETATM   20  N   UNK     0     158.614 159.806 144.831  0.00  0.00    -0.117 N 
HETATM   21  O   UNK     0     157.990 158.402 144.928  0.00  0.00    -0.532 OA
HETATM   22  O   UNK     0     157.719 161.031 144.568  0.00  0.00    -0.532 OA
ENDBRANCH  12  20
TORSDOF 1
ENDMDL
MODEL 5
REMARK VINA RESULT:      -6.8      2.971      6.623
REMARK  1 active torsions:
REMARK  status: ('A' for Active; 'I' for Inactive)
REMARK    1  A    between atoms: N_7  and  C_15 
ROOT
HETATM    1 Cl   UNK     0     113.972 174.281 109.171  0.00  0.00    -0.143 Cl
HETATM    2  O   UNK     0     110.176 167.820 109.793  0.00  0.00    -0.168 OA
HETATM    3  N   UNK     0     110.564 170.378 110.114  0.00  0.00    -0.223 NA
HETATM    4  N   UNK     0     113.540 169.738 108.469  0.00  0.00    -0.240 NA
HETATM    5  C   UNK     0     112.588 172.155 109.445  0.00  0.00     0.042 A 
HETATM    6  C   UNK     0     111.229 171.766 110.058  0.00  0.00     0.064 A 
HETATM    7  C   UNK     0     113.616 171.253 108.738  0.00  0.00     0.080 A 
HETATM    8  C   UNK     0     114.888 171.958 108.233  0.00  0.00     0.001 A 
HETATM    9  C   UNK     0     113.106 173.673 109.489  0.00  0.00     0.067 A 
HETATM   10  C   UNK     0     110.295 172.868 110.756  0.00  0.00     0.052 A 
HETATM   11  C   UNK     0     112.417 168.752 108.841  0.00  0.00     0.146 A 
HETATM   12  C   UNK     0     112.197 174.799 110.180  0.00  0.00     0.114 A 
HETATM   13  C   UNK     0     111.093 169.037 109.573  0.00  0.00     0.232 A 
HETATM   14  C   UNK     0     110.783 174.394 110.818  0.00  0.00     0.058 A 
HETATM   15  C   UNK     0     115.067 173.473 108.450  0.00  0.00     0.022 A 
HETATM   16  C   UNK     0     115.983 171.149 107.512  0.00  0.00     0.028 A 
HETATM   17  C   UNK     0     116.339 174.178 107.945  0.00  0.00     0.037 A 
HETATM   18  C   UNK     0     117.255 171.855 107.007  0.00  0.00     0.005 A 
HETATM   19  C   UNK     0     117.433 173.369 107.224  0.00  0.00     0.006 A 
ENDROOT
BRANCH  12  20
HETATM   20  N   UNK     0     112.680 176.262 110.230  0.00  0.00    -0.117 N 
HETATM   21  O   UNK     0     113.564 176.740 111.397  0.00  0.00    -0.532 OA
HETATM   22  O   UNK     0     112.279 177.243 109.114  0.00  0.00    -0.532 OA
ENDBRANCH  12  20
TORSDOF 1
ENDMDL
MODEL 6
REMARK VINA RESULT:      -6.7     84.973     87.614
REMARK  1 active torsions:
REMARK  status: ('A' for Active; 'I' for Inactive)
REMARK    1  A    between atoms: N_7  and  C_15 
ROOT
HETATM    1 Cl   UNK     0     134.659 100.128 150.604  0.00  0.00    -0.143 Cl
HETATM    2  O   UNK     0     138.143  93.695 148.864  0.00  0.00    -0.168 OA
HETATM    3  N   UNK     0     136.321  95.165 150.012  0.00  0.00    -0.223 NA
HETATM    4  N   UNK     0     137.995  97.765 148.459  0.00  0.00    -0.240 NA
HETATM    5  C   UNK     0     135.751  97.880 150.087  0.00  0.00     0.042 A 
HETATM    6  C   UNK     0     135.513  96.402 150.448  0.00  0.00     0.064 A 
HETATM    7  C   UNK     0     136.855  98.487 149.202  0.00  0.00     0.080 A 
HETATM    8  C   UNK     0     136.815 100.017 149.038  0.00  0.00     0.001 A 
HETATM    9  C   UNK     0     134.784  99.031 150.650  0.00  0.00     0.067 A 
HETATM   10  C   UNK     0     134.292  95.972 151.396  0.00  0.00     0.052 A 
HETATM   11  C   UNK     0     138.312  96.258 148.417  0.00  0.00     0.146 A 
HETATM   12  C   UNK     0     133.555  98.636 151.600  0.00  0.00     0.114 A 
HETATM   13  C   UNK     0     137.566  95.101 149.109  0.00  0.00     0.232 A 
HETATM   14  C   UNK     0     133.307  97.097 151.976  0.00  0.00     0.058 A 
HETATM   15  C   UNK     0     135.717 100.839 149.739  0.00  0.00     0.022 A 
HETATM   16  C   UNK     0     137.874 100.727 148.174  0.00  0.00     0.028 A 
HETATM   17  C   UNK     0     135.677 102.369 149.575  0.00  0.00     0.037 A 
HETATM   18  C   UNK     0     137.833 102.258 148.010  0.00  0.00     0.005 A 
HETATM   19  C   UNK     0     136.735 103.078 148.711  0.00  0.00     0.006 A 
ENDROOT
BRANCH  12  20
HETATM   20  N   UNK     0     132.617  99.729 152.149  0.00  0.00    -0.117 N 
HETATM   21  O   UNK     0     133.048 100.576 153.360  0.00  0.00    -0.532 OA
HETATM   22  O   UNK     0     131.250  99.974 151.485  0.00  0.00    -0.532 OA
ENDBRANCH  12  20
TORSDOF 1
ENDMDL
MODEL 7
REMARK VINA RESULT:      -6.7     59.231     60.288
REMARK  1 active torsions:
REMARK  status: ('A' for Active; 'I' for Inactive)
REMARK    1  A    between atoms: N_7  and  C_15 
ROOT
HETATM    1 Cl   UNK     0     131.961 147.633 162.227  0.00  0.00    -0.143 Cl
HETATM    2  O   UNK     0     126.722 149.973 157.366  0.00  0.00    -0.168 OA
HETATM    3  N   UNK     0     128.499 148.318 158.318  0.00  0.00    -0.223 NA
HETATM    4  N   UNK     0     128.876 150.739 160.761  0.00  0.00    -0.240 NA
HETATM    5  C   UNK     0     130.202 148.314 160.509  0.00  0.00     0.042 A 
HETATM    6  C   UNK     0     129.584 147.717 159.230  0.00  0.00     0.064 A 
HETATM    7  C   UNK     0     129.887 149.659 161.190  0.00  0.00     0.080 A 
HETATM    8  C   UNK     0     130.688 149.964 162.469  0.00  0.00     0.001 A 
HETATM    9  C   UNK     0     131.332 147.520 161.325  0.00  0.00     0.067 A 
HETATM   10  C   UNK     0     130.054 146.286 158.680  0.00  0.00     0.052 A 
HETATM   11  C   UNK     0     127.931 150.742 159.545  0.00  0.00     0.146 A 
HETATM   12  C   UNK     0     131.826 146.087 160.802  0.00  0.00     0.114 A 
HETATM   13  C   UNK     0     127.763 149.664 158.457  0.00  0.00     0.232 A 
HETATM   14  C   UNK     0     131.182 145.466 159.471  0.00  0.00     0.058 A 
HETATM   15  C   UNK     0     131.726 148.951 162.988  0.00  0.00     0.022 A 
HETATM   16  C   UNK     0     130.451 151.282 163.230  0.00  0.00     0.028 A 
HETATM   17  C   UNK     0     132.527 149.256 164.267  0.00  0.00     0.037 A 
HETATM   18  C   UNK     0     131.253 151.587 164.509  0.00  0.00     0.005 A 
HETATM   19  C   UNK     0     132.290 150.574 165.027  0.00  0.00     0.006 A 
ENDROOT
BRANCH  12  20
HETATM   20  N   UNK     0     132.911 145.312 161.574  0.00  0.00    -0.117 N 
HETATM   21  O   UNK     0     134.364 145.821 161.578  0.00  0.00    -0.532 OA
HETATM   22  O   UNK     0     132.541 144.029 162.341  0.00  0.00    -0.532 OA
ENDBRANCH  12  20
TORSDOF 1
ENDMDL
MODEL 8
REMARK VINA RESULT:      -6.5     59.042     60.538
REMARK  1 active torsions:
REMARK  status: ('A' for Active; 'I' for Inactive)
REMARK    1  A    between atoms: N_7  and  C_15 
ROOT
HETATM    1 Cl   UNK     0     133.281 143.352 159.695  0.00  0.00    -0.143 Cl
HETATM    2  O   UNK     0     130.069 144.118 152.939  0.00  0.00    -0.168 OA
HETATM    3  N   UNK     0     130.472 144.700 155.449  0.00  0.00    -0.223 NA
HETATM    4  N   UNK     0     132.765 142.114 155.277  0.00  0.00    -0.240 NA
HETATM    5  C   UNK     0     132.119 143.712 157.452  0.00  0.00     0.042 A 
HETATM    6  C   UNK     0     131.045 144.655 156.878  0.00  0.00     0.064 A 
HETATM    7  C   UNK     0     132.884 142.581 156.740  0.00  0.00     0.080 A 
HETATM    8  C   UNK     0     133.903 141.816 157.605  0.00  0.00     0.001 A 
HETATM    9  C   UNK     0     132.582 143.829 158.984  0.00  0.00     0.067 A 
HETATM   10  C   UNK     0     130.362 145.780 157.795  0.00  0.00     0.052 A 
HETATM   11  C   UNK     0     131.851 142.663 154.165  0.00  0.00     0.146 A 
HETATM   12  C   UNK     0     131.920 144.942 159.928  0.00  0.00     0.114 A 
HETATM   13  C   UNK     0     130.831 143.814 154.242  0.00  0.00     0.232 A 
HETATM   14  C   UNK     0     130.802 145.924 159.330  0.00  0.00     0.058 A 
HETATM   15  C   UNK     0     134.102 142.201 159.083  0.00  0.00     0.022 A 
HETATM   16  C   UNK     0     134.723 140.665 156.992  0.00  0.00     0.028 A 
HETATM   17  C   UNK     0     135.121 141.436 159.947  0.00  0.00     0.037 A 
HETATM   18  C   UNK     0     135.742 139.901 157.857  0.00  0.00     0.005 A 
HETATM   19  C   UNK     0     135.940 140.286 159.334  0.00  0.00     0.006 A 
ENDROOT
BRANCH  12  20
HETATM   20  N   UNK     0     132.354 145.067 161.401  0.00  0.00    -0.117 N 
HETATM   21  O   UNK     0     132.821 146.426 161.953  0.00  0.00    -0.532 OA
HETATM   22  O   UNK     0     132.320 143.833 162.321  0.00  0.00    -0.532 OA
ENDBRANCH  12  20
TORSDOF 1
ENDMDL
MODEL 9
REMARK VINA RESULT:      -6.4     54.273     56.690
REMARK  1 active torsions:
REMARK  status: ('A' for Active; 'I' for Inactive)
REMARK    1  A    between atoms: N_7  and  C_15 
ROOT
HETATM    1 Cl   UNK     0     141.810 125.330 124.197  0.00  0.00    -0.143 Cl
HETATM    2  O   UNK     0     147.600 129.877 125.732  0.00  0.00    -0.168 OA
HETATM    3  N   UNK     0     146.231 127.661 125.859  0.00  0.00    -0.223 NA
HETATM    4  N   UNK     0     144.027 129.361 123.803  0.00  0.00    -0.240 NA
HETATM    5  C   UNK     0     143.827 126.776 124.792  0.00  0.00     0.042 A 
HETATM    6  C   UNK     0     145.112 126.628 125.628  0.00  0.00     0.064 A 
HETATM    7  C   UNK     0     143.345 127.991 123.980  0.00  0.00     0.080 A 
HETATM    8  C   UNK     0     142.002 127.815 123.247  0.00  0.00     0.001 A 
HETATM    9  C   UNK     0     142.777 125.568 124.677  0.00  0.00     0.067 A 
HETATM   10  C   UNK     0     145.435 125.264 126.408  0.00  0.00     0.052 A 
HETATM   11  C   UNK     0     145.361 129.853 124.396  0.00  0.00     0.146 A 
HETATM   12  C   UNK     0     143.069 124.191 125.444  0.00  0.00     0.114 A 
HETATM   13  C   UNK     0     146.342 129.096 125.310  0.00  0.00     0.232 A 
HETATM   14  C   UNK     0     144.407 124.037 126.315  0.00  0.00     0.058 A 
HETATM   15  C   UNK     0     141.234 126.484 123.356  0.00  0.00     0.022 A 
HETATM   16  C   UNK     0     141.426 128.970 122.406  0.00  0.00     0.028 A 
HETATM   17  C   UNK     0     139.891 126.308 122.623  0.00  0.00     0.037 A 
HETATM   18  C   UNK     0     140.083 128.793 121.673  0.00  0.00     0.005 A 
HETATM   19  C   UNK     0     139.316 127.462 121.782  0.00  0.00     0.006 A 
ENDROOT
BRANCH  12  20
HETATM   20  N   UNK     0     142.070 123.022 125.344  0.00  0.00    -0.117 N 
HETATM   21  O   UNK     0     142.231 121.964 124.237  0.00  0.00    -0.532 OA
HETATM   22  O   UNK     0     140.912 122.912 126.352  0.00  0.00    -0.532 OA
ENDBRANCH  12  20
TORSDOF 1
ENDMDL
MODEL 10
REMARK VINA RESULT:      -6.4    115.102    116.989
REMARK  1 active torsions:
REMARK  status: ('A' for Active; 'I' for Inactive)
REMARK    1  A    between atoms: N_7  and  C_15 
ROOT
HETATM    1 Cl   UNK     0     161.143  96.406 185.061  0.00  0.00    -0.143 Cl
HETATM    2  O   UNK     0     160.593 103.806 186.284  0.00  0.00    -0.168 OA
HETATM    3  N   UNK     0     160.434 101.622 184.869  0.00  0.00    -0.223 NA
HETATM    4  N   UNK     0     161.512 100.113 187.790  0.00  0.00    -0.240 NA
HETATM    5  C   UNK     0     160.916  98.931 185.350  0.00  0.00     0.042 A 
HETATM    6  C   UNK     0     160.501 100.133 184.480  0.00  0.00     0.064 A 
HETATM    7  C   UNK     0     161.366  98.922 186.823  0.00  0.00     0.080 A 
HETATM    8  C   UNK     0     161.715  97.541 187.406  0.00  0.00     0.001 A 
HETATM    9  C   UNK     0     160.919  97.443 184.751  0.00  0.00     0.067 A 
HETATM   10  C   UNK     0     160.061  99.929 182.951  0.00  0.00     0.052 A 
HETATM   11  C   UNK     0     161.244 101.605 187.523  0.00  0.00     0.146 A 
HETATM   12  C   UNK     0     160.485  97.204 183.226  0.00  0.00     0.114 A 
HETATM   13  C   UNK     0     160.765 102.277 186.222  0.00  0.00     0.232 A 
HETATM   14  C   UNK     0     160.053  98.455 182.320  0.00  0.00     0.058 A 
HETATM   15  C   UNK     0     161.604  96.282 186.526  0.00  0.00     0.022 A 
HETATM   16  C   UNK     0     162.177  97.418 188.871  0.00  0.00     0.028 A 
HETATM   17  C   UNK     0     161.954  94.901 187.109  0.00  0.00     0.037 A 
HETATM   18  C   UNK     0     162.526  96.035 189.454  0.00  0.00     0.005 A 
HETATM   19  C   UNK     0     162.415  94.778 188.573  0.00  0.00     0.006 A 
ENDROOT
BRANCH  12  20
HETATM   20  N   UNK     0     160.482  95.781 182.636  0.00  0.00    -0.117 N 
HETATM   21  O   UNK     0     159.205  94.923 182.700  0.00  0.00    -0.532 OA
HETATM   22  O   UNK     0     161.757  95.217 181.981  0.00  0.00    -0.532 OA
ENDBRANCH  12  20
TORSDOF 1
ENDMDL
