MODEL 1
REMARK VINA RESULT:      -5.0      0.000      0.000
REMARK  3 active torsions:
REMARK  status: ('A' for Active; 'I' for Inactive)
REMARK    1  A    between atoms: N_1  and  C_2 
REMARK    2  A    between atoms: C_2  and  C_5 
REMARK    3  A    between atoms: C_2  and  C_6 
ROOT
HETATM    1  N   UNK     0     121.706 124.092 130.548  0.00  0.00    -0.311 N 
HETATM    2  C   UNK     0     121.949 124.051 129.029  0.00  0.00     0.171 A 
HETATM    3  C   UNK     0     123.060 124.336 131.241  0.00  0.00     0.108 A 
HETATM    4  C   UNK     0     123.454 124.270 128.782  0.00  0.00     0.075 A 
HETATM    5  O   UNK     0     120.876 123.830 127.946  0.00  0.00    -0.176 OA
HETATM    6  C   UNK     0     124.140 124.446 130.148  0.00  0.00     0.033 A 
ENDROOT
BRANCH   1   7
HETATM    7  C   UNK     0     120.347 123.920 131.253  0.00  0.00     0.077 C 
BRANCH   7   8
HETATM    8  C   UNK     0     119.859 122.515 131.651  0.00  0.00     0.212 C 
HETATM    9  N   UNK     0     119.418 122.235 133.100  0.00  0.00    -0.070 NA
HETATM   10  O   UNK     0     119.812 121.390 130.600  0.00  0.00    -0.174 OA
ENDBRANCH   7   8
BRANCH   7  11
HETATM   11  C   UNK     0     119.477 125.153 131.559  0.00  0.00     0.047 C 
HETATM   12  C   UNK     0     119.731 126.479 130.818  0.00  0.00     0.007 C 
ENDBRANCH   7  11
ENDBRANCH   1   7
TORSDOF 3
ENDMDL
MODEL 2
REMARK VINA RESULT:      -5.0     56.809     58.122
REMARK  3 active torsions:
REMARK  status: ('A' for Active; 'I' for Inactive)
REMARK    1  A    between atoms: N_1  and  C_2 
REMARK    2  A    between atoms: C_2  and  C_5 
REMARK    3  A    between atoms: C_2  and  C_6 
ROOT
HETATM    1  N   UNK     0     161.577 158.581 153.756  0.00  0.00    -0.311 N 
HETATM    2  C   UNK     0     161.756 160.009 154.302  0.00  0.00     0.171 A 
HETATM    3  C   UNK     0     162.096 158.557 152.306  0.00  0.00     0.108 A 
HETATM    4  C   UNK     0     162.387 160.868 153.190  0.00  0.00     0.075 A 
HETATM    5  O   UNK     0     161.372 160.494 155.712  0.00  0.00    -0.176 OA
HETATM    6  C   UNK     0     162.597 159.971 151.957  0.00  0.00     0.033 A 
ENDROOT
BRANCH   1   7
HETATM    7  C   UNK     0     160.982 157.386 154.524  0.00  0.00     0.077 C 
BRANCH   7   8
HETATM    8  C   UNK     0     161.592 156.955 155.870  0.00  0.00     0.212 C 
HETATM    9  N   UNK     0     160.941 157.409 157.191  0.00  0.00    -0.070 NA
HETATM   10  O   UNK     0     162.853 156.072 155.897  0.00  0.00    -0.174 OA
ENDBRANCH   7   8
BRANCH   7  11
HETATM   11  C   UNK     0     159.777 156.622 153.945  0.00  0.00     0.047 C 
HETATM   12  C   UNK     0     159.285 155.330 154.625  0.00  0.00     0.007 C 
ENDBRANCH   7  11
ENDBRANCH   1   7
TORSDOF 3
ENDMDL
MODEL 3
REMARK VINA RESULT:      -5.0     17.803     19.880
REMARK  3 active torsions:
REMARK  status: ('A' for Active; 'I' for Inactive)
REMARK    1  A    between atoms: N_1  and  C_2 
REMARK    2  A    between atoms: C_2  and  C_5 
REMARK    3  A    between atoms: C_2  and  C_6 
ROOT
HETATM    1  N   UNK     0     113.328 116.234 146.225  0.00  0.00    -0.311 N 
HETATM    2  C   UNK     0     113.895 117.662 146.129  0.00  0.00     0.171 A 
HETATM    3  C   UNK     0     113.618 115.516 144.893  0.00  0.00     0.108 A 
HETATM    4  C   UNK     0     114.536 117.827 144.738  0.00  0.00     0.075 A 
HETATM    5  O   UNK     0     113.832 118.736 147.231  0.00  0.00    -0.176 OA
HETATM    6  C   UNK     0     114.365 116.502 143.974  0.00  0.00     0.033 A 
ENDROOT
BRANCH   1   7
HETATM    7  C   UNK     0     112.599 115.629 147.438  0.00  0.00     0.077 C 
BRANCH   7   8
HETATM    8  C   UNK     0     111.222 114.963 147.257  0.00  0.00     0.212 C 
HETATM    9  N   UNK     0     110.649 114.065 148.369  0.00  0.00    -0.070 NA
HETATM   10  O   UNK     0     110.419 115.195 145.963  0.00  0.00    -0.174 OA
ENDBRANCH   7   8
BRANCH   7  11
HETATM   11  C   UNK     0     113.246 115.689 148.835  0.00  0.00     0.047 C 
HETATM   12  C   UNK     0     112.728 116.694 149.881  0.00  0.00     0.007 C 
ENDBRANCH   7  11
ENDBRANCH   1   7
TORSDOF 3
ENDMDL
MODEL 4
REMARK VINA RESULT:      -4.9     60.908     62.238
REMARK  3 active torsions:
REMARK  status: ('A' for Active; 'I' for Inactive)
REMARK    1  A    between atoms: N_1  and  C_2 
REMARK    2  A    between atoms: C_2  and  C_5 
REMARK    3  A    between atoms: C_2  and  C_6 
ROOT
HETATM    1  N   UNK     0     163.468 162.056 156.645  0.00  0.00    -0.311 N 
HETATM    2  C   UNK     0     162.775 161.725 157.979  0.00  0.00     0.171 A 
HETATM    3  C   UNK     0     164.990 161.982 156.868  0.00  0.00     0.108 A 
HETATM    4  C   UNK     0     163.868 161.446 159.027  0.00  0.00     0.075 A 
HETATM    5  O   UNK     0     161.254 161.680 158.222  0.00  0.00    -0.176 OA
HETATM    6  C   UNK     0     165.237 161.605 158.341  0.00  0.00     0.033 A 
ENDROOT
BRANCH   1   7
HETATM    7  C   UNK     0     162.764 162.400 155.319  0.00  0.00     0.077 C 
BRANCH   7   8
HETATM    8  C   UNK     0     162.113 161.285 154.480  0.00  0.00     0.212 C 
HETATM    9  N   UNK     0     162.537 161.079 153.014  0.00  0.00    -0.070 NA
HETATM   10  O   UNK     0     161.040 160.377 155.107  0.00  0.00    -0.174 OA
ENDBRANCH   7   8
BRANCH   7  11
HETATM   11  C   UNK     0     162.710 163.861 154.833  0.00  0.00     0.047 C 
HETATM   12  C   UNK     0     163.852 164.428 153.970  0.00  0.00     0.007 C 
ENDBRANCH   7  11
ENDBRANCH   1   7
TORSDOF 3
ENDMDL
MODEL 5
REMARK VINA RESULT:      -4.9      2.222      4.228
REMARK  3 active torsions:
REMARK  status: ('A' for Active; 'I' for Inactive)
REMARK    1  A    between atoms: N_1  and  C_2 
REMARK    2  A    between atoms: C_2  and  C_5 
REMARK    3  A    between atoms: C_2  and  C_6 
ROOT
HETATM    1  N   UNK     0     118.943 124.971 131.335  0.00  0.00    -0.311 N 
HETATM    2  C   UNK     0     119.252 126.455 131.064  0.00  0.00     0.171 A 
HETATM    3  C   UNK     0     117.505 124.877 131.878  0.00  0.00     0.108 A 
HETATM    4  C   UNK     0     118.005 127.278 131.440  0.00  0.00     0.075 A 
HETATM    5  O   UNK     0     120.576 127.017 130.514  0.00  0.00    -0.176 OA
HETATM    6  C   UNK     0     116.926 126.303 131.943  0.00  0.00     0.033 A 
ENDROOT
BRANCH   1   7
HETATM    7  C   UNK     0     119.902 123.789 131.105  0.00  0.00     0.077 C 
BRANCH   7   8
HETATM    8  C   UNK     0     120.404 122.960 132.300  0.00  0.00     0.212 C 
HETATM    9  N   UNK     0     121.906 122.928 132.640  0.00  0.00    -0.070 NA
HETATM   10  O   UNK     0     119.404 122.161 133.158  0.00  0.00    -0.174 OA
ENDBRANCH   7   8
BRANCH   7  11
HETATM   11  C   UNK     0     120.360 123.437 129.677  0.00  0.00     0.047 C 
HETATM   12  C   UNK     0     121.678 124.014 129.126  0.00  0.00     0.007 C 
ENDBRANCH   7  11
ENDBRANCH   1   7
TORSDOF 3
ENDMDL
MODEL 6
REMARK VINA RESULT:      -4.8     18.356     20.244
REMARK  3 active torsions:
REMARK  status: ('A' for Active; 'I' for Inactive)
REMARK    1  A    between atoms: N_1  and  C_2 
REMARK    2  A    between atoms: C_2  and  C_5 
REMARK    3  A    between atoms: C_2  and  C_6 
ROOT
HETATM    1  N   UNK     0     112.988 116.982 147.100  0.00  0.00    -0.311 N 
HETATM    2  C   UNK     0     113.708 116.075 146.086  0.00  0.00     0.171 A 
HETATM    3  C   UNK     0     113.645 118.373 147.044  0.00  0.00     0.108 A 
HETATM    4  C   UNK     0     114.812 116.905 145.404  0.00  0.00     0.075 A 
HETATM    5  O   UNK     0     113.383 114.596 145.804  0.00  0.00    -0.176 OA
HETATM    6  C   UNK     0     114.773 118.325 145.996  0.00  0.00     0.033 A 
ENDROOT
BRANCH   1   7
HETATM    7  C   UNK     0     111.815 116.571 148.009  0.00  0.00     0.077 C 
BRANCH   7   8
HETATM    8  C   UNK     0     110.426 116.302 147.401  0.00  0.00     0.212 C 
HETATM    9  N   UNK     0     109.199 117.082 147.909  0.00  0.00    -0.070 NA
HETATM   10  O   UNK     0     110.264 115.254 146.284  0.00  0.00    -0.174 OA
ENDBRANCH   7   8
BRANCH   7  11
HETATM   11  C   UNK     0     112.031 116.428 149.527  0.00  0.00     0.047 C 
HETATM   12  C   UNK     0     113.448 116.198 150.085  0.00  0.00     0.007 C 
ENDBRANCH   7  11
ENDBRANCH   1   7
TORSDOF 3
ENDMDL
MODEL 7
REMARK VINA RESULT:      -4.8     58.278     59.593
REMARK  3 active torsions:
REMARK  status: ('A' for Active; 'I' for Inactive)
REMARK    1  A    between atoms: N_1  and  C_2 
REMARK    2  A    between atoms: C_2  and  C_5 
REMARK    3  A    between atoms: C_2  and  C_6 
ROOT
HETATM    1  N   UNK     0     161.978 160.492 154.509  0.00  0.00    -0.311 N 
HETATM    2  C   UNK     0     162.056 161.482 155.684  0.00  0.00     0.171 A 
HETATM    3  C   UNK     0     162.547 161.190 153.260  0.00  0.00     0.108 A 
HETATM    4  C   UNK     0     162.673 162.793 155.163  0.00  0.00     0.075 A 
HETATM    5  O   UNK     0     161.598 161.209 157.130  0.00  0.00    -0.176 OA
HETATM    6  C   UNK     0     162.976 162.613 153.665  0.00  0.00     0.033 A 
ENDROOT
BRANCH   1   7
HETATM    7  C   UNK     0     161.428 159.054 154.570  0.00  0.00     0.077 C 
BRANCH   7   8
HETATM    8  C   UNK     0     162.273 157.933 155.201  0.00  0.00     0.212 C 
HETATM    9  N   UNK     0     163.708 157.678 154.705  0.00  0.00    -0.070 NA
HETATM   10  O   UNK     0     161.683 157.066 156.329  0.00  0.00    -0.174 OA
ENDBRANCH   7   8
BRANCH   7  11
HETATM   11  C   UNK     0     160.033 158.739 153.999  0.00  0.00     0.047 C 
HETATM   12  C   UNK     0     159.846 158.545 152.483  0.00  0.00     0.007 C 
ENDBRANCH   7  11
ENDBRANCH   1   7
TORSDOF 3
ENDMDL
MODEL 8
REMARK VINA RESULT:      -4.7     70.552     71.516
REMARK  3 active torsions:
REMARK  status: ('A' for Active; 'I' for Inactive)
REMARK    1  A    between atoms: N_1  and  C_2 
REMARK    2  A    between atoms: C_2  and  C_5 
REMARK    3  A    between atoms: C_2  and  C_6 
ROOT
HETATM    1  N   UNK     0     158.410 118.456 191.707  0.00  0.00    -0.311 N 
HETATM    2  C   UNK     0     159.024 117.735 190.494  0.00  0.00     0.171 A 
HETATM    3  C   UNK     0     159.375 119.579 192.131  0.00  0.00     0.108 A 
HETATM    4  C   UNK     0     160.369 118.412 190.167  0.00  0.00     0.075 A 
HETATM    5  O   UNK     0     158.403 116.545 189.738  0.00  0.00    -0.176 OA
HETATM    6  C   UNK     0     160.586 119.551 191.179  0.00  0.00     0.033 A 
ENDROOT
BRANCH   1   7
HETATM    7  C   UNK     0     157.067 118.115 192.379  0.00  0.00     0.077 C 
BRANCH   7   8
HETATM    8  C   UNK     0     155.822 118.974 192.091  0.00  0.00     0.212 C 
HETATM    9  N   UNK     0     154.637 118.374 191.312  0.00  0.00    -0.070 NA
HETATM   10  O   UNK     0     155.762 120.432 192.582  0.00  0.00    -0.174 OA
ENDBRANCH   7   8
BRANCH   7  11
HETATM   11  C   UNK     0     156.969 116.915 193.339  0.00  0.00     0.047 C 
HETATM   12  C   UNK     0     156.950 115.480 192.779  0.00  0.00     0.007 C 
ENDBRANCH   7  11
ENDBRANCH   1   7
TORSDOF 3
ENDMDL
MODEL 9
REMARK VINA RESULT:      -4.7     16.362     18.321
REMARK  3 active torsions:
REMARK  status: ('A' for Active; 'I' for Inactive)
REMARK    1  A    between atoms: N_1  and  C_2 
REMARK    2  A    between atoms: C_2  and  C_5 
REMARK    3  A    between atoms: C_2  and  C_6 
ROOT
HETATM    1  N   UNK     0     106.626 122.245 140.173  0.00  0.00    -0.311 N 
HETATM    2  C   UNK     0     107.718 121.573 141.025  0.00  0.00     0.171 A 
HETATM    3  C   UNK     0     107.310 123.256 139.234  0.00  0.00     0.108 A 
HETATM    4  C   UNK     0     109.077 122.169 140.613  0.00  0.00     0.075 A 
HETATM    5  O   UNK     0     107.491 120.494 142.100  0.00  0.00    -0.176 OA
HETATM    6  C   UNK     0     108.825 123.209 139.507  0.00  0.00     0.033 A 
ENDROOT
BRANCH   1   7
HETATM    7  C   UNK     0     105.115 121.957 140.246  0.00  0.00     0.077 C 
BRANCH   7   8
HETATM    8  C   UNK     0     104.199 122.857 141.095  0.00  0.00     0.212 C 
HETATM    9  N   UNK     0     104.659 124.275 141.483  0.00  0.00    -0.070 NA
HETATM   10  O   UNK     0     102.824 122.341 141.556  0.00  0.00    -0.174 OA
ENDBRANCH   7   8
BRANCH   7  11
HETATM   11  C   UNK     0     104.520 120.767 139.470  0.00  0.00     0.047 C 
HETATM   12  C   UNK     0     105.449 119.692 138.876  0.00  0.00     0.007 C 
ENDBRANCH   7  11
ENDBRANCH   1   7
TORSDOF 3
ENDMDL
MODEL 10
REMARK VINA RESULT:      -4.7     47.952     49.096
REMARK  3 active torsions:
REMARK  status: ('A' for Active; 'I' for Inactive)
REMARK    1  A    between atoms: N_1  and  C_2 
REMARK    2  A    between atoms: C_2  and  C_5 
REMARK    3  A    between atoms: C_2  and  C_6 
ROOT
HETATM    1  N   UNK     0     134.618 113.054 175.875  0.00  0.00    -0.311 N 
HETATM    2  C   UNK     0     134.932 113.839 174.588  0.00  0.00     0.171 A 
HETATM    3  C   UNK     0     133.127 112.670 175.846  0.00  0.00     0.108 A 
HETATM    4  C   UNK     0     133.635 113.941 173.764  0.00  0.00     0.075 A 
HETATM    5  O   UNK     0     136.303 114.420 174.195  0.00  0.00    -0.176 OA
HETATM    6  C   UNK     0     132.519 113.219 174.541  0.00  0.00     0.033 A 
ENDROOT
BRANCH   1   7
HETATM    7  C   UNK     0     135.619 112.712 176.994  0.00  0.00     0.077 C 
BRANCH   7   8
HETATM    8  C   UNK     0     135.305 113.095 178.451  0.00  0.00     0.212 C 
HETATM    9  N   UNK     0     135.636 112.115 179.593  0.00  0.00    -0.070 NA
HETATM   10  O   UNK     0     134.660 114.456 178.768  0.00  0.00    -0.174 OA
ENDBRANCH   7   8
BRANCH   7  11
HETATM   11  C   UNK     0     136.935 111.987 176.655  0.00  0.00     0.047 C 
HETATM   12  C   UNK     0     136.950 110.875 175.589  0.00  0.00     0.007 C 
ENDBRANCH   7  11
ENDBRANCH   1   7
TORSDOF 3
ENDMDL
