MODEL 1
REMARK VINA RESULT:      -8.0      0.000      0.000
REMARK  0 active torsions:
REMARK  status: ('A' for Active; 'I' for Inactive)
ROOT
HETATM    1 Cl   UNK     0     122.609 122.314 121.815  0.00  0.00    -0.100 Cl
HETATM    2 Cl   UNK     0     122.894 124.087 123.681  0.00  0.00    -0.158 Cl
HETATM    3  O   UNK     0     125.015 130.921 123.789  0.00  0.00    -0.165 OA
HETATM    4  O   UNK     0     125.342 130.650 120.945  0.00  0.00    -0.165 OA
HETATM    5  N   UNK     0     124.584 128.159 120.799  0.00  0.00    -0.222 NA
HETATM    6  N   UNK     0     124.191 128.485 124.222  0.00  0.00    -0.217 NA
HETATM    7  C   UNK     0     123.725 126.259 122.630  0.00  0.00     0.011 A 
HETATM    8  C   UNK     0     123.771 127.025 123.966  0.00  0.00     0.077 A 
HETATM    9  C   UNK     0     124.086 126.763 121.222  0.00  0.00     0.059 A 
HETATM   10  C   UNK     0     123.342 126.226 125.210  0.00  0.00     0.001 A 
HETATM   11  C   UNK     0     124.668 129.539 123.205  0.00  0.00     0.257 A 
HETATM   12  C   UNK     0     123.221 124.755 122.863  0.00  0.00     0.059 A 
HETATM   13  C   UNK     0     124.843 129.394 121.682  0.00  0.00     0.257 A 
HETATM   14  C   UNK     0     123.969 125.798 119.946  0.00  0.00     0.048 A 
HETATM   15  C   UNK     0     123.092 123.762 121.610  0.00  0.00     0.128 A 
HETATM   16  C   UNK     0     123.468 124.287 120.142  0.00  0.00     0.036 A 
HETATM   17  C   UNK     0     122.903 124.756 125.068  0.00  0.00     0.019 A 
HETATM   18  C   UNK     0     123.351 126.896 126.597  0.00  0.00     0.028 A 
HETATM   19  C   UNK     0     122.473 123.957 126.312  0.00  0.00     0.036 A 
HETATM   20  C   UNK     0     122.921 126.097 127.842  0.00  0.00     0.005 A 
HETATM   21  C   UNK     0     122.482 124.627 127.699  0.00  0.00     0.006 A 
ENDROOT
TORSDOF 0
ENDMDL
MODEL 2
REMARK VINA RESULT:      -7.8     67.666     70.203
REMARK  0 active torsions:
REMARK  status: ('A' for Active; 'I' for Inactive)
ROOT
HETATM    1 Cl   UNK     0     148.819 125.630 192.912  0.00  0.00    -0.100 Cl
HETATM    2 Cl   UNK     0     146.779 124.388 191.909  0.00  0.00    -0.158 Cl
HETATM    3  O   UNK     0     142.264 125.744 186.525  0.00  0.00    -0.165 OA
HETATM    4  O   UNK     0     143.785 128.153 186.129  0.00  0.00    -0.165 OA
HETATM    5  N   UNK     0     145.481 127.751 188.068  0.00  0.00    -0.222 NA
HETATM    6  N   UNK     0     143.651 124.852 188.545  0.00  0.00    -0.217 NA
HETATM    7  C   UNK     0     145.857 125.760 189.965  0.00  0.00     0.011 A 
HETATM    8  C   UNK     0     144.725 124.764 189.646  0.00  0.00     0.077 A 
HETATM    9  C   UNK     0     146.193 127.088 189.263  0.00  0.00     0.059 A 
HETATM   10  C   UNK     0     144.659 123.516 190.545  0.00  0.00     0.001 A 
HETATM   11  C   UNK     0     143.443 125.958 187.493  0.00  0.00     0.257 A 
HETATM   12  C   UNK     0     146.730 125.239 191.205  0.00  0.00     0.059 A 
HETATM   13  C   UNK     0     144.257 127.247 187.281  0.00  0.00     0.257 A 
HETATM   14  C   UNK     0     147.426 127.989 189.754  0.00  0.00     0.048 A 
HETATM   15  C   UNK     0     147.970 126.115 191.722  0.00  0.00     0.128 A 
HETATM   16  C   UNK     0     148.320 127.499 190.991  0.00  0.00     0.036 A 
HETATM   17  C   UNK     0     145.686 123.327 191.678  0.00  0.00     0.019 A 
HETATM   18  C   UNK     0     143.566 122.456 190.313  0.00  0.00     0.028 A 
HETATM   19  C   UNK     0     145.620 122.079 192.577  0.00  0.00     0.036 A 
HETATM   20  C   UNK     0     143.500 121.208 191.212  0.00  0.00     0.005 A 
HETATM   21  C   UNK     0     144.528 121.020 192.344  0.00  0.00     0.006 A 
ENDROOT
TORSDOF 0
ENDMDL
MODEL 3
REMARK VINA RESULT:      -7.6      3.626      5.005
REMARK  0 active torsions:
REMARK  status: ('A' for Active; 'I' for Inactive)
ROOT
HETATM    1 Cl   UNK     0     123.395 124.247 119.197  0.00  0.00    -0.100 Cl
HETATM    2 Cl   UNK     0     124.410 126.329 120.356  0.00  0.00    -0.158 Cl
HETATM    3  O   UNK     0     126.773 132.674 118.039  0.00  0.00    -0.165 OA
HETATM    4  O   UNK     0     126.058 131.749 115.411  0.00  0.00    -0.165 OA
HETATM    5  N   UNK     0     125.174 129.412 116.153  0.00  0.00    -0.222 NA
HETATM    6  N   UNK     0     126.034 130.524 119.316  0.00  0.00    -0.217 NA
HETATM    7  C   UNK     0     124.924 128.089 118.580  0.00  0.00     0.011 A 
HETATM    8  C   UNK     0     125.478 129.114 119.588  0.00  0.00     0.077 A 
HETATM    9  C   UNK     0     124.788 128.221 117.052  0.00  0.00     0.059 A 
HETATM   10  C   UNK     0     125.477 128.669 121.062  0.00  0.00     0.001 A 
HETATM   11  C   UNK     0     126.172 131.258 117.968  0.00  0.00     0.257 A 
HETATM   12  C   UNK     0     124.459 126.753 119.335  0.00  0.00     0.059 A 
HETATM   13  C   UNK     0     125.790 130.763 116.561  0.00  0.00     0.257 A 
HETATM   14  C   UNK     0     124.179 127.026 116.173  0.00  0.00     0.048 A 
HETATM   15  C   UNK     0     123.845 125.537 118.488  0.00  0.00     0.128 A 
HETATM   16  C   UNK     0     123.704 125.676 116.896  0.00  0.00     0.036 A 
HETATM   17  C   UNK     0     124.942 127.277 121.447  0.00  0.00     0.019 A 
HETATM   18  C   UNK     0     126.009 129.618 122.153  0.00  0.00     0.028 A 
HETATM   19  C   UNK     0     124.941 126.833 122.921  0.00  0.00     0.036 A 
HETATM   20  C   UNK     0     126.008 129.174 123.628  0.00  0.00     0.005 A 
HETATM   21  C   UNK     0     125.474 127.781 124.011  0.00  0.00     0.006 A 
ENDROOT
TORSDOF 0
ENDMDL
MODEL 4
REMARK VINA RESULT:      -7.5      4.315      7.461
REMARK  0 active torsions:
REMARK  status: ('A' for Active; 'I' for Inactive)
ROOT
HETATM    1 Cl   UNK     0     126.157 130.841 123.964  0.00  0.00    -0.100 Cl
HETATM    2 Cl   UNK     0     125.876 130.077 121.505  0.00  0.00    -0.158 Cl
HETATM    3  O   UNK     0     124.472 123.805 118.358  0.00  0.00    -0.165 OA
HETATM    4  O   UNK     0     124.399 122.720 121.021  0.00  0.00    -0.165 OA
HETATM    5  N   UNK     0     124.906 124.956 122.263  0.00  0.00    -0.222 NA
HETATM    6  N   UNK     0     124.994 126.262 119.059  0.00  0.00    -0.217 NA
HETATM    7  C   UNK     0     125.381 127.574 121.475  0.00  0.00     0.011 A 
HETATM    8  C   UNK     0     125.283 127.493 119.939  0.00  0.00     0.077 A 
HETATM    9  C   UNK     0     125.213 126.445 122.508  0.00  0.00     0.059 A 
HETATM   10  C   UNK     0     125.504 128.817 119.185  0.00  0.00     0.001 A 
HETATM   11  C   UNK     0     124.730 124.809 119.497  0.00  0.00     0.257 A 
HETATM   12  C   UNK     0     125.702 129.075 121.939  0.00  0.00     0.059 A 
HETATM   13  C   UNK     0     124.692 124.228 120.923  0.00  0.00     0.257 A 
HETATM   14  C   UNK     0     125.355 126.740 124.078  0.00  0.00     0.048 A 
HETATM   15  C   UNK     0     125.850 129.405 123.501  0.00  0.00     0.128 A 
HETATM   16  C   UNK     0     125.675 128.229 124.578  0.00  0.00     0.036 A 
HETATM   17  C   UNK     0     125.801 130.110 119.967  0.00  0.00     0.019 A 
HETATM   18  C   UNK     0     125.429 128.848 117.646  0.00  0.00     0.028 A 
HETATM   19  C   UNK     0     126.022 131.434 119.213  0.00  0.00     0.036 A 
HETATM   20  C   UNK     0     125.650 130.172 116.891  0.00  0.00     0.005 A 
HETATM   21  C   UNK     0     125.946 131.465 117.675  0.00  0.00     0.006 A 
ENDROOT
TORSDOF 0
ENDMDL
MODEL 5
REMARK VINA RESULT:      -7.4      4.531      6.534
REMARK  0 active torsions:
REMARK  status: ('A' for Active; 'I' for Inactive)
ROOT
HETATM    1 Cl   UNK     0     122.878 123.848 114.846  0.00  0.00    -0.100 Cl
HETATM    2 Cl   UNK     0     123.441 125.233 116.961  0.00  0.00    -0.158 Cl
HETATM    3  O   UNK     0     126.082 131.790 118.074  0.00  0.00    -0.165 OA
HETATM    4  O   UNK     0     126.168 132.018 115.208  0.00  0.00    -0.165 OA
HETATM    5  N   UNK     0     125.212 129.647 114.697  0.00  0.00    -0.222 NA
HETATM    6  N   UNK     0     125.109 129.372 118.145  0.00  0.00    -0.217 NA
HETATM    7  C   UNK     0     124.353 127.504 116.237  0.00  0.00     0.011 A 
HETATM    8  C   UNK     0     124.560 128.011 117.676  0.00  0.00     0.077 A 
HETATM    9  C   UNK     0     124.643 128.231 114.911  0.00  0.00     0.059 A 
HETATM   10  C   UNK     0     124.168 127.028 118.795  0.00  0.00     0.001 A 
HETATM   11  C   UNK     0     125.586 130.561 117.290  0.00  0.00     0.257 A 
HETATM   12  C   UNK     0     123.754 126.016 116.246  0.00  0.00     0.059 A 
HETATM   13  C   UNK     0     125.632 130.684 115.755  0.00  0.00     0.257 A 
HETATM   14  C   UNK     0     124.354 127.522 113.502  0.00  0.00     0.048 A 
HETATM   15  C   UNK     0     123.453 125.276 114.855  0.00  0.00     0.128 A 
HETATM   16  C   UNK     0     123.755 126.034 113.474  0.00  0.00     0.036 A 
HETATM   17  C   UNK     0     123.607 125.639 118.438  0.00  0.00     0.019 A 
HETATM   18  C   UNK     0     124.335 127.435 120.271  0.00  0.00     0.028 A 
HETATM   19  C   UNK     0     123.214 124.656 119.556  0.00  0.00     0.036 A 
HETATM   20  C   UNK     0     123.942 126.452 121.390  0.00  0.00     0.005 A 
HETATM   21  C   UNK     0     123.382 125.062 121.031  0.00  0.00     0.006 A 
ENDROOT
TORSDOF 0
ENDMDL
MODEL 6
REMARK VINA RESULT:      -6.9     68.299     71.262
REMARK  0 active torsions:
REMARK  status: ('A' for Active; 'I' for Inactive)
ROOT
HETATM    1 Cl   UNK     0     143.104 121.634 190.294  0.00  0.00    -0.100 Cl
HETATM    2 Cl   UNK     0     144.159 123.924 189.699  0.00  0.00    -0.158 Cl
HETATM    3  O   UNK     0     149.493 127.826 192.444  0.00  0.00    -0.165 OA
HETATM    4  O   UNK     0     149.790 125.698 194.356  0.00  0.00    -0.165 OA
HETATM    5  N   UNK     0     147.865 124.202 193.431  0.00  0.00    -0.222 NA
HETATM    6  N   UNK     0     147.507 126.763 191.131  0.00  0.00    -0.217 NA
HETATM    7  C   UNK     0     146.049 124.410 191.343  0.00  0.00     0.011 A 
HETATM    8  C   UNK     0     146.409 125.767 190.709  0.00  0.00     0.077 A 
HETATM    9  C   UNK     0     146.696 123.714 192.554  0.00  0.00     0.059 A 
HETATM   10  C   UNK     0     145.560 126.184 189.494  0.00  0.00     0.001 A 
HETATM   11  C   UNK     0     148.515 126.646 192.290  0.00  0.00     0.257 A 
HETATM   12  C   UNK     0     144.828 123.729 190.557  0.00  0.00     0.059 A 
HETATM   13  C   UNK     0     148.675 125.506 193.313  0.00  0.00     0.257 A 
HETATM   14  C   UNK     0     146.169 122.287 193.062  0.00  0.00     0.048 A 
HETATM   15  C   UNK     0     144.275 122.303 191.038  0.00  0.00     0.128 A 
HETATM   16  C   UNK     0     144.950 121.577 192.299  0.00  0.00     0.036 A 
HETATM   17  C   UNK     0     144.434 125.263 188.988  0.00  0.00     0.019 A 
HETATM   18  C   UNK     0     145.836 127.523 188.785  0.00  0.00     0.028 A 
HETATM   19  C   UNK     0     143.585 125.680 187.773  0.00  0.00     0.036 A 
HETATM   20  C   UNK     0     144.987 127.940 187.570  0.00  0.00     0.005 A 
HETATM   21  C   UNK     0     143.862 127.018 187.064  0.00  0.00     0.006 A 
ENDROOT
TORSDOF 0
ENDMDL
MODEL 7
REMARK VINA RESULT:      -6.8     41.051     42.042
REMARK  0 active torsions:
REMARK  status: ('A' for Active; 'I' for Inactive)
ROOT
HETATM    1 Cl   UNK     0     154.653 119.460 147.644  0.00  0.00    -0.100 Cl
HETATM    2 Cl   UNK     0     154.211 116.976 148.231  0.00  0.00    -0.158 Cl
HETATM    3  O   UNK     0     152.333 113.522 154.210  0.00  0.00    -0.165 OA
HETATM    4  O   UNK     0     152.338 116.111 155.463  0.00  0.00    -0.165 OA
HETATM    5  N   UNK     0     153.020 117.462 153.339  0.00  0.00    -0.222 NA
HETATM    6  N   UNK     0     153.014 114.346 151.832  0.00  0.00    -0.217 NA
HETATM    7  C   UNK     0     153.587 116.815 150.701  0.00  0.00     0.011 A 
HETATM    8  C   UNK     0     153.409 115.285 150.677  0.00  0.00     0.077 A 
HETATM    9  C   UNK     0     153.414 117.783 151.885  0.00  0.00     0.059 A 
HETATM   10  C   UNK     0     153.659 114.604 149.319  0.00  0.00     0.001 A 
HETATM   11  C   UNK     0     152.699 114.706 153.297  0.00  0.00     0.257 A 
HETATM   12  C   UNK     0     154.007 117.355 149.250  0.00  0.00     0.059 A 
HETATM   13  C   UNK     0     152.701 116.092 153.967  0.00  0.00     0.257 A 
HETATM   14  C   UNK     0     153.648 119.359 151.701  0.00  0.00     0.048 A 
HETATM   15  C   UNK     0     154.249 118.925 149.030  0.00  0.00     0.128 A 
HETATM   16  C   UNK     0     154.069 119.934 150.264  0.00  0.00     0.036 A 
HETATM   17  C   UNK     0     154.060 115.449 148.095  0.00  0.00     0.019 A 
HETATM   18  C   UNK     0     153.509 113.077 149.183  0.00  0.00     0.028 A 
HETATM   19  C   UNK     0     154.311 114.768 146.737  0.00  0.00     0.036 A 
HETATM   20  C   UNK     0     153.759 112.396 147.825  0.00  0.00     0.005 A 
HETATM   21  C   UNK     0     154.160 113.242 146.602  0.00  0.00     0.006 A 
ENDROOT
TORSDOF 0
ENDMDL
MODEL 8
REMARK VINA RESULT:      -6.8     40.231     43.080
REMARK  0 active torsions:
REMARK  status: ('A' for Active; 'I' for Inactive)
ROOT
HETATM    1 Cl   UNK     0     127.833 147.498 157.740  0.00  0.00    -0.100 Cl
HETATM    2 Cl   UNK     0     129.467 147.908 159.708  0.00  0.00    -0.158 Cl
HETATM    3  O   UNK     0     134.633 144.033 162.792  0.00  0.00    -0.165 OA
HETATM    4  O   UNK     0     133.976 142.002 160.865  0.00  0.00    -0.165 OA
HETATM    5  N   UNK     0     132.076 143.332 159.673  0.00  0.00    -0.222 NA
HETATM    6  N   UNK     0     132.867 145.777 161.992  0.00  0.00    -0.217 NA
HETATM    7  C   UNK     0     130.936 145.841 159.999  0.00  0.00     0.011 A 
HETATM    8  C   UNK     0     131.726 146.425 161.185  0.00  0.00     0.077 A 
HETATM    9  C   UNK     0     131.092 144.465 159.326  0.00  0.00     0.059 A 
HETATM   10  C   UNK     0     131.322 147.845 161.623  0.00  0.00     0.001 A 
HETATM   11  C   UNK     0     133.499 144.384 161.811  0.00  0.00     0.257 A 
HETATM   12  C   UNK     0     129.839 146.891 159.483  0.00  0.00     0.059 A 
HETATM   13  C   UNK     0     133.147 143.296 160.779  0.00  0.00     0.257 A 
HETATM   14  C   UNK     0     130.161 144.043 158.090  0.00  0.00     0.048 A 
HETATM   15  C   UNK     0     128.891 146.502 158.248  0.00  0.00     0.128 A 
HETATM   16  C   UNK     0     129.054 145.069 157.548  0.00  0.00     0.036 A 
HETATM   17  C   UNK     0     130.192 148.587 160.885  0.00  0.00     0.019 A 
HETATM   18  C   UNK     0     132.048 148.524 162.800  0.00  0.00     0.028 A 
HETATM   19  C   UNK     0     129.788 150.007 161.323  0.00  0.00     0.036 A 
HETATM   20  C   UNK     0     131.644 149.944 163.238  0.00  0.00     0.005 A 
HETATM   21  C   UNK     0     130.514 150.685 162.499  0.00  0.00     0.006 A 
ENDROOT
TORSDOF 0
ENDMDL
MODEL 9
REMARK VINA RESULT:      -6.8     40.715     42.696
REMARK  0 active torsions:
REMARK  status: ('A' for Active; 'I' for Inactive)
ROOT
HETATM    1 Cl   UNK     0     120.044 115.326 167.064  0.00  0.00    -0.100 Cl
HETATM    2 Cl   UNK     0     122.356 116.264 166.370  0.00  0.00    -0.158 Cl
HETATM    3  O   UNK     0     126.928 114.837 161.053  0.00  0.00    -0.165 OA
HETATM    4  O   UNK     0     125.007 112.872 160.205  0.00  0.00    -0.165 OA
HETATM    5  N   UNK     0     123.276 113.316 162.103  0.00  0.00    -0.222 NA
HETATM    6  N   UNK     0     125.587 115.681 163.124  0.00  0.00    -0.217 NA
HETATM    7  C   UNK     0     123.145 115.038 164.276  0.00  0.00     0.011 A 
HETATM    8  C   UNK     0     124.468 115.821 164.173  0.00  0.00     0.077 A 
HETATM    9  C   UNK     0     122.614 113.924 163.355  0.00  0.00     0.059 A 
HETATM   10  C   UNK     0     124.703 116.882 165.264  0.00  0.00     0.001 A 
HETATM   11  C   UNK     0     125.659 114.725 161.918  0.00  0.00     0.257 A 
HETATM   12  C   UNK     0     122.295 115.534 165.542  0.00  0.00     0.059 A 
HETATM   13  C   UNK     0     124.631 113.673 161.464  0.00  0.00     0.257 A 
HETATM   14  C   UNK     0     121.197 113.229 163.636  0.00  0.00     0.048 A 
HETATM   15  C   UNK     0     120.873 114.861 165.853  0.00  0.00     0.128 A 
HETATM   16  C   UNK     0     120.320 113.701 164.893  0.00  0.00     0.036 A 
HETATM   17  C   UNK     0     123.647 117.104 166.363  0.00  0.00     0.019 A 
HETATM   18  C   UNK     0     125.994 117.722 165.256  0.00  0.00     0.028 A 
HETATM   19  C   UNK     0     123.882 118.166 167.454  0.00  0.00     0.036 A 
HETATM   20  C   UNK     0     126.229 118.783 166.346  0.00  0.00     0.005 A 
HETATM   21  C   UNK     0     125.173 119.005 167.445  0.00  0.00     0.006 A 
ENDROOT
TORSDOF 0
ENDMDL
MODEL 10
REMARK VINA RESULT:      -6.7     49.821     50.718
REMARK  0 active torsions:
REMARK  status: ('A' for Active; 'I' for Inactive)
ROOT
HETATM    1 Cl   UNK     0     127.086 102.134 166.663  0.00  0.00    -0.100 Cl
HETATM    2 Cl   UNK     0     128.689 103.974 167.532  0.00  0.00    -0.158 Cl
HETATM    3  O   UNK     0     135.691 104.208 168.991  0.00  0.00    -0.165 OA
HETATM    4  O   UNK     0     135.744 101.451 168.177  0.00  0.00    -0.165 OA
HETATM    5  N   UNK     0     133.204 101.262 167.616  0.00  0.00    -0.222 NA
HETATM    6  N   UNK     0     133.141 104.581 168.597  0.00  0.00    -0.217 NA
HETATM    7  C   UNK     0     131.041 102.998 167.707  0.00  0.00     0.011 A 
HETATM    8  C   UNK     0     131.672 104.306 168.223  0.00  0.00     0.077 A 
HETATM    9  C   UNK     0     131.723 101.645 167.437  0.00  0.00     0.059 A 
HETATM   10  C   UNK     0     130.707 105.494 168.387  0.00  0.00     0.001 A 
HETATM   11  C   UNK     0     134.341 103.616 168.546  0.00  0.00     0.257 A 
HETATM   12  C   UNK     0     129.470 103.195 167.453  0.00  0.00     0.059 A 
HETATM   13  C   UNK     0     134.369 102.140 168.110  0.00  0.00     0.257 A 
HETATM   14  C   UNK     0     130.880 100.392 166.895  0.00  0.00     0.048 A 
HETATM   15  C   UNK     0     128.596 101.963 166.912  0.00  0.00     0.128 A 
HETATM   16  C   UNK     0     129.306 100.553 166.631  0.00  0.00     0.036 A 
HETATM   17  C   UNK     0     129.215 105.329 168.042  0.00  0.00     0.019 A 
HETATM   18  C   UNK     0     131.234 106.849 168.897  0.00  0.00     0.028 A 
HETATM   19  C   UNK     0     128.250 106.518 168.206  0.00  0.00     0.036 A 
HETATM   20  C   UNK     0     130.269 108.038 169.061  0.00  0.00     0.005 A 
HETATM   21  C   UNK     0     128.777 107.872 168.716  0.00  0.00     0.006 A 
ENDROOT
TORSDOF 0
ENDMDL
