MODEL 1
REMARK VINA RESULT:      -6.6      0.000      0.000
REMARK  1 active torsions:
REMARK  status: ('A' for Active; 'I' for Inactive)
REMARK    1  A    between atoms: C_10  and  C_15 
ROOT
HETATM    1 Cl   UNK     0      91.223 161.713 128.224  0.00  0.00    -0.091 Cl
HETATM    2  N   UNK     0      91.270 156.824 124.325  0.00  0.00    -0.300 N 
HETATM    3  N   UNK     0      92.616 159.099 122.091  0.00  0.00    -0.243 NA
HETATM    4  N   UNK     0      90.843 154.450 123.759  0.00  0.00    -0.251 NA
HETATM    5  C   UNK     0      91.328 158.123 125.151  0.00  0.00     0.040 A 
HETATM    6  C   UNK     0      91.703 156.595 122.865  0.00  0.00     0.086 A 
HETATM    7  C   UNK     0      91.835 159.513 124.722  0.00  0.00     0.012 A 
HETATM    8  C   UNK     0      92.303 157.607 121.871  0.00  0.00     0.114 A 
HETATM    9  C   UNK     0      92.408 159.947 123.359  0.00  0.00     0.077 A 
HETATM   10  C   UNK     0      90.740 155.497 124.871  0.00  0.00     0.120 A 
HETATM   11  C   UNK     0      91.437 155.127 122.522  0.00  0.00     0.172 A 
HETATM   12  C   UNK     0      90.763 157.874 126.632  0.00  0.00     0.049 A 
HETATM   13  C   UNK     0      91.811 160.749 125.743  0.00  0.00     0.062 A 
HETATM   14  C   UNK     0      90.197 155.256 126.292  0.00  0.00     0.072 C 
HETATM   15  C   UNK     0      90.725 159.088 127.679  0.00  0.00     0.040 A 
HETATM   16  C   UNK     0      91.253 160.536 127.231  0.00  0.00     0.018 A 
ENDROOT
BRANCH   9  17
HETATM   17  C   UNK     0      92.828 161.424 123.253  0.00  0.00     0.018 A 
HETATM   18  C   UNK     0      94.309 161.817 123.417  0.00  0.00     0.115 A 
HETATM   19  F   UNK     0      95.368 160.732 123.688  0.00  0.00    -0.209 F 
HETATM   20  C   UNK     0      94.730 163.294 123.311  0.00  0.00     0.056 A 
HETATM   21  C   UNK     0      93.671 164.379 123.040  0.00  0.00     0.007 A 
HETATM   22  C   UNK     0      92.191 163.986 122.875  0.00  0.00     0.005 A 
HETATM   23  C   UNK     0      91.770 162.509 122.982  0.00  0.00     0.030 A 
ENDBRANCH   9  17
TORSDOF 1
ENDMDL
MODEL 2
REMARK VINA RESULT:      -6.6     19.381     20.534
REMARK  1 active torsions:
REMARK  status: ('A' for Active; 'I' for Inactive)
REMARK    1  A    between atoms: C_10  and  C_15 
ROOT
HETATM    1 Cl   UNK     0     113.734 155.876 130.464  0.00  0.00    -0.091 Cl
HETATM    2  N   UNK     0     108.257 154.665 127.699  0.00  0.00    -0.300 N 
HETATM    3  N   UNK     0     109.819 151.730 126.740  0.00  0.00    -0.243 NA
HETATM    4  N   UNK     0     105.920 155.225 127.094  0.00  0.00    -0.251 NA
HETATM    5  C   UNK     0     109.661 154.806 128.318  0.00  0.00     0.040 A 
HETATM    6  C   UNK     0     107.689 153.505 126.862  0.00  0.00     0.086 A 
HETATM    7  C   UNK     0     110.843 153.821 128.250  0.00  0.00     0.012 A 
HETATM    8  C   UNK     0     108.384 152.199 126.434  0.00  0.00     0.114 A 
HETATM    9  C   UNK     0     110.913 152.452 127.548  0.00  0.00     0.077 A 
HETATM   10  C   UNK     0     107.161 155.724 127.839  0.00  0.00     0.120 A 
HETATM   11  C   UNK     0     106.246 153.857 126.491  0.00  0.00     0.172 A 
HETATM   12  C   UNK     0     109.791 156.196 129.108  0.00  0.00     0.049 A 
HETATM   13  C   UNK     0     112.237 154.157 128.969  0.00  0.00     0.062 A 
HETATM   14  C   UNK     0     107.284 157.058 128.598  0.00  0.00     0.072 C 
HETATM   15  C   UNK     0     111.171 156.564 129.838  0.00  0.00     0.040 A 
HETATM   16  C   UNK     0     112.402 155.538 129.768  0.00  0.00     0.018 A 
ENDROOT
BRANCH   9  17
HETATM   17  C   UNK     0     112.255 151.707 127.670  0.00  0.00     0.018 A 
HETATM   18  C   UNK     0     112.569 150.890 128.938  0.00  0.00     0.115 A 
HETATM   19  F   UNK     0     111.540 150.818 130.082  0.00  0.00    -0.209 F 
HETATM   20  C   UNK     0     113.910 150.145 129.062  0.00  0.00     0.056 A 
HETATM   21  C   UNK     0     114.939 150.217 127.918  0.00  0.00     0.007 A 
HETATM   22  C   UNK     0     114.626 151.033 126.651  0.00  0.00     0.005 A 
HETATM   23  C   UNK     0     113.283 151.779 126.527  0.00  0.00     0.030 A 
ENDBRANCH   9  17
TORSDOF 1
ENDMDL
MODEL 3
REMARK VINA RESULT:      -6.5     60.515     62.801
REMARK  1 active torsions:
REMARK  status: ('A' for Active; 'I' for Inactive)
REMARK    1  A    between atoms: C_10  and  C_15 
ROOT
HETATM    1 Cl   UNK     0     114.550 144.059 182.586  0.00  0.00    -0.091 Cl
HETATM    2  N   UNK     0     109.107 141.208 183.749  0.00  0.00    -0.300 N 
HETATM    3  N   UNK     0     108.917 140.986 180.301  0.00  0.00    -0.243 NA
HETATM    4  N   UNK     0     107.356 140.331 185.269  0.00  0.00    -0.251 NA
HETATM    5  C   UNK     0     110.412 141.885 183.290  0.00  0.00     0.040 A 
HETATM    6  C   UNK     0     107.993 140.586 182.888  0.00  0.00     0.086 A 
HETATM    7  C   UNK     0     110.925 142.108 181.855  0.00  0.00     0.012 A 
HETATM    8  C   UNK     0     107.908 140.488 181.352  0.00  0.00     0.114 A 
HETATM    9  C   UNK     0     110.259 141.707 180.525  0.00  0.00     0.077 A 
HETATM   10  C   UNK     0     108.709 141.048 185.218  0.00  0.00     0.120 A 
HETATM   11  C   UNK     0     106.916 140.047 183.831  0.00  0.00     0.172 A 
HETATM   12  C   UNK     0     111.264 142.382 184.555  0.00  0.00     0.049 A 
HETATM   13  C   UNK     0     112.325 142.842 181.585  0.00  0.00     0.062 A 
HETATM   14  C   UNK     0     109.525 141.524 186.434  0.00  0.00     0.072 C 
HETATM   15  C   UNK     0     112.669 143.120 184.322  0.00  0.00     0.040 A 
HETATM   16  C   UNK     0     113.203 143.352 182.827  0.00  0.00     0.018 A 
ENDROOT
BRANCH   9  17
HETATM   17  C   UNK     0     111.040 142.078 179.250  0.00  0.00     0.018 A 
HETATM   18  C   UNK     0     111.053 143.536 178.752  0.00  0.00     0.115 A 
HETATM   19  F   UNK     0     110.285 144.622 179.529  0.00  0.00    -0.209 F 
HETATM   20  C   UNK     0     111.833 143.907 177.478  0.00  0.00     0.056 A 
HETATM   21  C   UNK     0     112.601 142.820 176.701  0.00  0.00     0.007 A 
HETATM   22  C   UNK     0     112.588 141.364 177.199  0.00  0.00     0.005 A 
HETATM   23  C   UNK     0     111.807 140.992 178.474  0.00  0.00     0.030 A 
ENDBRANCH   9  17
TORSDOF 1
ENDMDL
MODEL 4
REMARK VINA RESULT:      -6.4    111.336    112.817
REMARK  1 active torsions:
REMARK  status: ('A' for Active; 'I' for Inactive)
REMARK    1  A    between atoms: C_10  and  C_15 
ROOT
HETATM    1 Cl   UNK     0     174.640 107.972 185.028  0.00  0.00    -0.091 Cl
HETATM    2  N   UNK     0     170.387 107.941 189.613  0.00  0.00    -0.300 N 
HETATM    3  N   UNK     0     168.130 108.267 187.010  0.00  0.00    -0.243 NA
HETATM    4  N   UNK     0     169.711 107.823 191.994  0.00  0.00    -0.251 NA
HETATM    5  C   UNK     0     171.298 107.965 188.371  0.00  0.00     0.040 A 
HETATM    6  C   UNK     0     168.852 108.037 189.680  0.00  0.00     0.086 A 
HETATM    7  C   UNK     0     170.898 108.093 186.889  0.00  0.00     0.012 A 
HETATM    8  C   UNK     0     167.847 108.183 188.521  0.00  0.00     0.114 A 
HETATM    9  C   UNK     0     169.487 108.227 186.284  0.00  0.00     0.077 A 
HETATM   10  C   UNK     0     170.912 107.808 191.044  0.00  0.00     0.120 A 
HETATM   11  C   UNK     0     168.441 107.964 191.153  0.00  0.00     0.172 A 
HETATM   12  C   UNK     0     172.838 107.834 188.799  0.00  0.00     0.049 A 
HETATM   13  C   UNK     0     172.010 108.098 185.733  0.00  0.00     0.062 A 
HETATM   14  C   UNK     0     172.390 107.682 191.458  0.00  0.00     0.072 C 
HETATM   15  C   UNK     0     173.976 107.836 187.670  0.00  0.00     0.040 A 
HETATM   16  C   UNK     0     173.559 107.969 186.126  0.00  0.00     0.018 A 
ENDROOT
BRANCH   9  17
HETATM   17  C   UNK     0     169.428 108.336 184.749  0.00  0.00     0.018 A 
HETATM   18  C   UNK     0     168.948 107.136 183.910  0.00  0.00     0.115 A 
HETATM   19  F   UNK     0     168.528 105.828 184.607  0.00  0.00    -0.209 F 
HETATM   20  C   UNK     0     168.889 107.244 182.376  0.00  0.00     0.056 A 
HETATM   21  C   UNK     0     169.309 108.551 181.679  0.00  0.00     0.007 A 
HETATM   22  C   UNK     0     169.788 109.750 182.517  0.00  0.00     0.005 A 
HETATM   23  C   UNK     0     169.848 109.643 184.052  0.00  0.00     0.030 A 
ENDBRANCH   9  17
TORSDOF 1
ENDMDL
MODEL 5
REMARK VINA RESULT:      -6.3     26.132     28.413
REMARK  1 active torsions:
REMARK  status: ('A' for Active; 'I' for Inactive)
REMARK    1  A    between atoms: C_10  and  C_15 
ROOT
HETATM    1 Cl   UNK     0     115.163 176.198 109.003  0.00  0.00    -0.091 Cl
HETATM    2  N   UNK     0     112.393 170.597 109.257  0.00  0.00    -0.300 N 
HETATM    3  N   UNK     0     109.862 172.340 110.847  0.00  0.00    -0.243 NA
HETATM    4  N   UNK     0     112.301 168.159 108.820  0.00  0.00    -0.251 NA
HETATM    5  C   UNK     0     112.932 172.040 109.278  0.00  0.00     0.040 A 
HETATM    6  C   UNK     0     111.059 170.062 109.807  0.00  0.00     0.086 A 
HETATM    7  C   UNK     0     112.268 173.305 109.855  0.00  0.00     0.012 A 
HETATM    8  C   UNK     0     109.931 170.838 110.515  0.00  0.00     0.114 A 
HETATM    9  C   UNK     0     110.901 173.438 110.553  0.00  0.00     0.077 A 
HETATM   10  C   UNK     0     113.156 169.418 108.648  0.00  0.00     0.120 A 
HETATM   11  C   UNK     0     111.008 168.557 109.534  0.00  0.00     0.172 A 
HETATM   12  C   UNK     0     114.375 172.113 108.582  0.00  0.00     0.049 A 
HETATM   13  C   UNK     0     113.001 174.729 109.776  0.00  0.00     0.062 A 
HETATM   14  C   UNK     0     114.542 169.486 107.980  0.00  0.00     0.072 C 
HETATM   15  C   UNK     0     115.137 173.520 108.486  0.00  0.00     0.040 A 
HETATM   16  C   UNK     0     114.446 174.837 109.087  0.00  0.00     0.018 A 
ENDROOT
BRANCH   9  17
HETATM   17  C   UNK     0     110.525 174.857 111.019  0.00  0.00     0.018 A 
HETATM   18  C   UNK     0     109.721 175.784 110.088  0.00  0.00     0.115 A 
HETATM   19  F   UNK     0     109.293 175.292 108.692  0.00  0.00    -0.209 F 
HETATM   20  C   UNK     0     109.345 177.203 110.552  0.00  0.00     0.056 A 
HETATM   21  C   UNK     0     109.773 177.695 111.948  0.00  0.00     0.007 A 
HETATM   22  C   UNK     0     110.577 176.768 112.878  0.00  0.00     0.005 A 
HETATM   23  C   UNK     0     110.953 175.348 112.413  0.00  0.00     0.030 A 
ENDBRANCH   9  17
TORSDOF 1
ENDMDL
MODEL 6
REMARK VINA RESULT:      -6.2     97.725     99.760
REMARK  1 active torsions:
REMARK  status: ('A' for Active; 'I' for Inactive)
REMARK    1  A    between atoms: C_10  and  C_15 
ROOT
HETATM    1 Cl   UNK     0     145.298 108.084 197.102  0.00  0.00    -0.091 Cl
HETATM    2  N   UNK     0     142.738 110.499 191.933  0.00  0.00    -0.300 N 
HETATM    3  N   UNK     0     145.659 112.350 191.805  0.00  0.00    -0.243 NA
HETATM    4  N   UNK     0     140.926 110.697 190.253  0.00  0.00    -0.251 NA
HETATM    5  C   UNK     0     143.507 110.011 193.175  0.00  0.00     0.040 A 
HETATM    6  C   UNK     0     143.163 111.551 190.892  0.00  0.00     0.086 A 
HETATM    7  C   UNK     0     144.892 110.455 193.682  0.00  0.00     0.012 A 
HETATM    8  C   UNK     0     144.463 112.375 190.834  0.00  0.00     0.114 A 
HETATM    9  C   UNK     0     145.850 111.496 193.072  0.00  0.00     0.077 A 
HETATM   10  C   UNK     0     141.356 109.976 191.534  0.00  0.00     0.120 A 
HETATM   11  C   UNK     0     142.041 111.668 189.857  0.00  0.00     0.172 A 
HETATM   12  C   UNK     0     142.659 108.901 193.962  0.00  0.00     0.049 A 
HETATM   13  C   UNK     0     145.525 109.819 195.011  0.00  0.00     0.062 A 
HETATM   14  C   UNK     0     140.541 108.909 192.288  0.00  0.00     0.072 C 
HETATM   15  C   UNK     0     143.262 108.243 195.295  0.00  0.00     0.040 A 
HETATM   16  C   UNK     0     144.704 108.705 195.823  0.00  0.00     0.018 A 
ENDROOT
BRANCH   9  17
HETATM   17  C   UNK     0     147.173 111.711 193.830  0.00  0.00     0.018 A 
HETATM   18  C   UNK     0     148.473 111.072 193.304  0.00  0.00     0.115 A 
HETATM   19  F   UNK     0     148.449 110.221 192.021  0.00  0.00    -0.209 F 
HETATM   20  C   UNK     0     149.796 111.286 194.062  0.00  0.00     0.056 A 
HETATM   21  C   UNK     0     149.820 112.138 195.345  0.00  0.00     0.007 A 
HETATM   22  C   UNK     0     148.521 112.775 195.870  0.00  0.00     0.005 A 
HETATM   23  C   UNK     0     147.197 112.562 195.112  0.00  0.00     0.030 A 
ENDBRANCH   9  17
TORSDOF 1
ENDMDL
MODEL 7
REMARK VINA RESULT:      -6.2     78.185     80.265
REMARK  1 active torsions:
REMARK  status: ('A' for Active; 'I' for Inactive)
REMARK    1  A    between atoms: C_10  and  C_15 
ROOT
HETATM    1 Cl   UNK     0     126.549 104.517 168.262  0.00  0.00    -0.091 Cl
HETATM    2  N   UNK     0     132.555 103.186 167.139  0.00  0.00    -0.300 N 
HETATM    3  N   UNK     0     133.152 105.879 169.230  0.00  0.00    -0.243 NA
HETATM    4  N   UNK     0     134.360 101.860 166.079  0.00  0.00    -0.251 NA
HETATM    5  C   UNK     0     131.135 103.647 167.518  0.00  0.00     0.040 A 
HETATM    6  C   UNK     0     133.906 103.778 167.581  0.00  0.00     0.086 A 
HETATM    7  C   UNK     0     130.715 104.813 168.434  0.00  0.00     0.012 A 
HETATM    8  C   UNK     0     134.172 104.976 168.512  0.00  0.00     0.114 A 
HETATM    9  C   UNK     0     131.614 105.806 169.195  0.00  0.00     0.077 A 
HETATM   10  C   UNK     0     132.841 102.003 166.212  0.00  0.00     0.120 A 
HETATM   11  C   UNK     0     135.016 102.954 166.923  0.00  0.00     0.172 A 
HETATM   12  C   UNK     0     130.034 102.719 166.811  0.00  0.00     0.049 A 
HETATM   13  C   UNK     0     129.167 105.132 168.704  0.00  0.00     0.062 A 
HETATM   14  C   UNK     0     131.786 101.111 165.532  0.00  0.00     0.072 C 
HETATM   15  C   UNK     0     128.476 103.010 167.059  0.00  0.00     0.040 A 
HETATM   16  C   UNK     0     128.040 104.224 168.012  0.00  0.00     0.018 A 
ENDROOT
BRANCH   9  17
HETATM   17  C   UNK     0     130.875 106.867 170.033  0.00  0.00     0.018 A 
HETATM   18  C   UNK     0     130.261 108.100 169.344  0.00  0.00     0.115 A 
HETATM   19  F   UNK     0     130.386 108.273 167.818  0.00  0.00    -0.209 F 
HETATM   20  C   UNK     0     129.522 109.161 170.180  0.00  0.00     0.056 A 
HETATM   21  C   UNK     0     129.396 108.988 171.705  0.00  0.00     0.007 A 
HETATM   22  C   UNK     0     130.010 107.756 172.394  0.00  0.00     0.005 A 
HETATM   23  C   UNK     0     130.749 106.694 171.557  0.00  0.00     0.030 A 
ENDBRANCH   9  17
TORSDOF 1
ENDMDL
MODEL 8
REMARK VINA RESULT:      -6.1     23.557     25.138
REMARK  1 active torsions:
REMARK  status: ('A' for Active; 'I' for Inactive)
REMARK    1  A    between atoms: C_10  and  C_15 
ROOT
HETATM    1 Cl   UNK     0     117.709 152.577 113.785  0.00  0.00    -0.091 Cl
HETATM    2  N   UNK     0     115.574 153.106 119.638  0.00  0.00    -0.300 N 
HETATM    3  N   UNK     0     113.151 155.097 118.174  0.00  0.00    -0.243 NA
HETATM    4  N   UNK     0     115.657 152.629 122.069  0.00  0.00    -0.251 NA
HETATM    5  C   UNK     0     115.964 153.081 118.148  0.00  0.00     0.040 A 
HETATM    6  C   UNK     0     114.396 153.836 120.310  0.00  0.00     0.086 A 
HETATM    7  C   UNK     0     115.274 153.781 116.962  0.00  0.00     0.012 A 
HETATM    8  C   UNK     0     113.318 154.723 119.658  0.00  0.00     0.114 A 
HETATM    9  C   UNK     0     114.022 154.678 116.974  0.00  0.00     0.077 A 
HETATM   10  C   UNK     0     116.348 152.362 120.728  0.00  0.00     0.120 A 
HETATM   11  C   UNK     0     114.453 153.538 121.810  0.00  0.00     0.172 A 
HETATM   12  C   UNK     0     117.273 152.180 117.924  0.00  0.00     0.049 A 
HETATM   13  C   UNK     0     115.843 153.627 115.471  0.00  0.00     0.062 A 
HETATM   14  C   UNK     0     117.604 151.497 120.515  0.00  0.00     0.072 C 
HETATM   15  C   UNK     0     117.869 152.005 116.446  0.00  0.00     0.040 A 
HETATM   16  C   UNK     0     117.150 152.734 115.211  0.00  0.00     0.018 A 
ENDROOT
BRANCH   9  17
HETATM   17  C   UNK     0     113.583 155.228 115.604  0.00  0.00     0.018 A 
HETATM   18  C   UNK     0     114.264 156.483 115.025  0.00  0.00     0.115 A 
HETATM   19  F   UNK     0     115.383 157.186 115.816  0.00  0.00    -0.209 F 
HETATM   20  C   UNK     0     113.826 157.034 113.656  0.00  0.00     0.056 A 
HETATM   21  C   UNK     0     112.707 156.330 112.865  0.00  0.00     0.007 A 
HETATM   22  C   UNK     0     112.026 155.077 113.444  0.00  0.00     0.005 A 
HETATM   23  C   UNK     0     112.464 154.526 114.814  0.00  0.00     0.030 A 
ENDBRANCH   9  17
TORSDOF 1
ENDMDL
MODEL 9
REMARK VINA RESULT:      -5.9     65.310     67.158
REMARK  1 active torsions:
REMARK  status: ('A' for Active; 'I' for Inactive)
REMARK    1  A    between atoms: C_10  and  C_15 
ROOT
HETATM    1 Cl   UNK     0     152.158 172.224 155.349  0.00  0.00    -0.091 Cl
HETATM    2  N   UNK     0     148.763 167.042 156.196  0.00  0.00    -0.300 N 
HETATM    3  N   UNK     0     151.214 165.570 154.246  0.00  0.00    -0.243 NA
HETATM    4  N   UNK     0     146.828 165.798 157.118  0.00  0.00    -0.251 NA
HETATM    5  C   UNK     0     149.710 168.218 155.891  0.00  0.00     0.040 A 
HETATM    6  C   UNK     0     148.878 165.574 155.745  0.00  0.00     0.086 A 
HETATM    7  C   UNK     0     151.006 168.216 155.058  0.00  0.00     0.012 A 
HETATM    8  C   UNK     0     149.969 164.919 154.877  0.00  0.00     0.114 A 
HETATM    9  C   UNK     0     151.675 167.037 154.327  0.00  0.00     0.077 A 
HETATM   10  C   UNK     0     147.495 167.174 157.043  0.00  0.00     0.120 A 
HETATM   11  C   UNK     0     147.681 164.812 156.317  0.00  0.00     0.172 A 
HETATM   12  C   UNK     0     149.176 169.564 156.579  0.00  0.00     0.049 A 
HETATM   13  C   UNK     0     151.858 169.560 154.858  0.00  0.00     0.062 A 
HETATM   14  C   UNK     0     146.981 168.466 157.705  0.00  0.00     0.072 C 
HETATM   15  C   UNK     0     150.002 170.927 156.399  0.00  0.00     0.040 A 
HETATM   16  C   UNK     0     151.352 170.925 155.532  0.00  0.00     0.018 A 
ENDROOT
BRANCH   9  17
HETATM   17  C   UNK     0     152.978 167.370 153.577  0.00  0.00     0.018 A 
HETATM   18  C   UNK     0     154.332 167.273 154.306  0.00  0.00     0.115 A 
HETATM   19  F   UNK     0     154.382 166.842 155.784  0.00  0.00    -0.209 F 
HETATM   20  C   UNK     0     155.635 167.607 153.557  0.00  0.00     0.056 A 
HETATM   21  C   UNK     0     155.585 168.037 152.079  0.00  0.00     0.007 A 
HETATM   22  C   UNK     0     154.232 168.134 151.351  0.00  0.00     0.005 A 
HETATM   23  C   UNK     0     152.928 167.801 152.100  0.00  0.00     0.030 A 
ENDBRANCH   9  17
TORSDOF 1
ENDMDL
MODEL 10
REMARK VINA RESULT:      -5.9    100.755    102.303
REMARK  1 active torsions:
REMARK  status: ('A' for Active; 'I' for Inactive)
REMARK    1  A    between atoms: C_10  and  C_15 
ROOT
HETATM    1 Cl   UNK     0     166.998 101.861 171.058  0.00  0.00    -0.091 Cl
HETATM    2  N   UNK     0     167.356 107.108 167.675  0.00  0.00    -0.300 N 
HETATM    3  N   UNK     0     165.813 108.538 170.422  0.00  0.00    -0.243 NA
HETATM    4  N   UNK     0     167.982 108.386 165.646  0.00  0.00    -0.251 NA
HETATM    5  C   UNK     0     167.190 105.914 168.634  0.00  0.00     0.040 A 
HETATM    6  C   UNK     0     166.939 108.575 167.886  0.00  0.00     0.086 A 
HETATM    7  C   UNK     0     166.565 105.893 170.042  0.00  0.00     0.012 A 
HETATM    8  C   UNK     0     166.252 109.211 169.109  0.00  0.00     0.114 A 
HETATM    9  C   UNK     0     165.952 107.061 170.837  0.00  0.00     0.077 A 
HETATM   10  C   UNK     0     168.000 106.997 166.290  0.00  0.00     0.120 A 
HETATM   11  C   UNK     0     167.328 109.359 166.630  0.00  0.00     0.172 A 
HETATM   12  C   UNK     0     167.779 104.575 167.975  0.00  0.00     0.049 A 
HETATM   13  C   UNK     0     166.486 104.533 170.887  0.00  0.00     0.062 A 
HETATM   14  C   UNK     0     168.566 105.714 165.656  0.00  0.00     0.072 C 
HETATM   15  C   UNK     0     167.717 103.197 168.792  0.00  0.00     0.040 A 
HETATM   16  C   UNK     0     167.066 103.176 170.259  0.00  0.00     0.018 A 
ENDROOT
BRANCH   9  17
HETATM   17  C   UNK     0     165.407 106.704 172.233  0.00  0.00     0.018 A 
HETATM   18  C   UNK     0     163.927 106.311 172.403  0.00  0.00     0.115 A 
HETATM   19  F   UNK     0     162.994 106.275 171.178  0.00  0.00    -0.209 F 
HETATM   20  C   UNK     0     163.381 105.954 173.797  0.00  0.00     0.056 A 
HETATM   21  C   UNK     0     164.315 105.990 175.022  0.00  0.00     0.007 A 
HETATM   22  C   UNK     0     165.793 106.383 174.852  0.00  0.00     0.005 A 
HETATM   23  C   UNK     0     166.340 106.740 173.457  0.00  0.00     0.030 A 
ENDBRANCH   9  17
TORSDOF 1
ENDMDL
