REMARK  7 active torsions:
REMARK  status: ('A' for Active; 'I' for Inactive)
REMARK    1  A    between atoms: O_1  and  C_16 
REMARK    2  A    between atoms: O_1  and  C_24 
REMARK    3  A    between atoms: O_2  and  C_18 
REMARK    4  A    between atoms: O_2  and  C_26 
REMARK    5  A    between atoms: O_5  and  C_29 
REMARK    6  A    between atoms: N_9  and  C_22 
REMARK    7  A    between atoms: C_26  and  C_29 
ROOT
HETATM    1  O   UNK     0       7.081   0.477   0.000  0.00  0.00    -0.290 OA
HETATM    2  O   UNK     0      12.416   0.477   0.000  0.00  0.00    -0.284 OA
HETATM    3  N   UNK     0       9.748  -4.143   0.000  0.00  0.00    -0.254 NA
HETATM    4  C   UNK     0       9.748  -1.063   0.000  0.00  0.00     0.014 A 
HETATM    5  C   UNK     0       8.415  -1.833   0.000  0.00  0.00     0.060 A 
HETATM    6  C   UNK     0      11.082  -1.833   0.000  0.00  0.00     0.060 A 
HETATM    7  C   UNK     0       9.748   0.477   0.000  0.00  0.00     0.043 A 
HETATM    8  C   UNK     0       8.415  -3.373   0.000  0.00  0.00     0.063 A 
HETATM    9  C   UNK     0      11.082  -3.373   0.000  0.00  0.00     0.063 A 
HETATM   10  C   UNK     0       7.081  -1.063   0.000  0.00  0.00     0.200 A 
HETATM   11  C   UNK     0      11.082   1.247   0.000  0.00  0.00     0.121 A 
HETATM   12  C   UNK     0      12.416  -1.063   0.000  0.00  0.00     0.200 A 
HETATM   13  C   UNK     0       8.415   1.247   0.000  0.00  0.00     0.082 A 
HETATM   14  C   UNK     0       7.081  -4.143   0.000  0.00  0.00     0.052 C 
HETATM   15  C   UNK     0      12.416  -4.143   0.000  0.00  0.00     0.052 C 
HETATM   16  C   UNK     0      11.082   2.787   0.000  0.00  0.00     0.127 A 
HETATM   17  C   UNK     0       8.415   2.787   0.000  0.00  0.00     0.058 A 
HETATM   18  C   UNK     0       9.748   3.557   0.000  0.00  0.00     0.059 A 
ENDROOT
BRANCH  12  19
HETATM   19  O   UNK     0      13.750  -1.833   0.000  0.00  0.00    -0.308 OA
BRANCH  19  20
HETATM   20  C   UNK     0      15.083  -1.063   0.000  0.00  0.00     0.183 C 
BRANCH  20  21
HETATM   21  C   UNK     0      16.417  -1.833   0.000  0.00  0.00     0.175 C 
BRANCH  21  22
HETATM   22  O   UNK     0      17.751  -1.063   0.000  0.00  0.00    -0.349 OA
HETATM   23  C   UNK     0      19.085  -1.833   0.000  0.00  0.00     0.174 C 
ENDBRANCH  21  22
ENDBRANCH  20  21
ENDBRANCH  19  20
ENDBRANCH  12  19
BRANCH  16  24
HETATM   24  N   UNK     0      12.416   3.557   0.000  0.00  0.00    -0.116 N 
HETATM   25  O   UNK     0      12.416   5.097   0.000  0.00  0.00    -0.532 OA
HETATM   26  O   UNK     0      13.750   2.787   0.000  0.00  0.00    -0.532 OA
ENDBRANCH  16  24
BRANCH  10  27
HETATM   27  O   UNK     0       5.748  -1.833   0.000  0.00  0.00    -0.313 OA
BRANCH  27  28
HETATM   28  C   UNK     0       4.414  -1.063   0.000  0.00  0.00     0.124 C 
HETATM   29  C   UNK     0       3.080  -1.833   0.000  0.00  0.00     0.033 C 
HETATM   30  C   UNK     0       4.414   0.477   0.000  0.00  0.00     0.033 C 
ENDBRANCH  27  28
ENDBRANCH  10  27
TORSDOF 7
