MODEL 1
REMARK VINA RESULT:      -7.4      0.000      0.000
REMARK  7 active torsions:
REMARK  status: ('A' for Active; 'I' for Inactive)
REMARK    1  A    between atoms: O_1  and  C_16 
REMARK    2  A    between atoms: O_1  and  C_24 
REMARK    3  A    between atoms: O_2  and  C_18 
REMARK    4  A    between atoms: O_2  and  C_26 
REMARK    5  A    between atoms: O_5  and  C_29 
REMARK    6  A    between atoms: N_9  and  C_22 
REMARK    7  A    between atoms: C_26  and  C_29 
ROOT
HETATM    1  O   UNK     0     124.164 127.553 115.214  0.00  0.00    -0.290 OA
HETATM    2  O   UNK     0     126.159 129.620 119.710  0.00  0.00    -0.284 OA
HETATM    3  N   UNK     0     124.737 124.480 119.536  0.00  0.00    -0.254 NA
HETATM    4  C   UNK     0     125.020 127.218 118.153  0.00  0.00     0.014 A 
HETATM    5  C   UNK     0     124.451 126.017 117.375  0.00  0.00     0.060 A 
HETATM    6  C   UNK     0     125.448 127.050 119.623  0.00  0.00     0.060 A 
HETATM    7  C   UNK     0     125.161 128.586 117.461  0.00  0.00     0.043 A 
HETATM    8  C   UNK     0     124.309 124.648 118.067  0.00  0.00     0.063 A 
HETATM    9  C   UNK     0     125.307 125.681 120.315  0.00  0.00     0.063 A 
HETATM   10  C   UNK     0     124.022 126.185 115.905  0.00  0.00     0.200 A 
HETATM   11  C   UNK     0     125.731 129.787 118.240  0.00  0.00     0.121 A 
HETATM   12  C   UNK     0     126.018 128.251 120.401  0.00  0.00     0.200 A 
HETATM   13  C   UNK     0     124.733 128.754 115.992  0.00  0.00     0.082 A 
HETATM   14  C   UNK     0     123.740 123.448 117.289  0.00  0.00     0.052 C 
HETATM   15  C   UNK     0     125.735 125.514 121.785  0.00  0.00     0.052 C 
HETATM   16  C   UNK     0     125.872 131.156 117.548  0.00  0.00     0.127 A 
HETATM   17  C   UNK     0     124.875 130.123 115.300  0.00  0.00     0.058 A 
HETATM   18  C   UNK     0     125.444 131.324 116.078  0.00  0.00     0.059 A 
ENDROOT
BRANCH  12  19
HETATM   19  O   UNK     0     126.446 128.083 121.871  0.00  0.00    -0.308 OA
BRANCH  19  20
HETATM   20  C   UNK     0     125.761 128.913 122.972  0.00  0.00     0.183 C 
BRANCH  20  21
HETATM   21  C   UNK     0     126.115 128.672 124.451  0.00  0.00     0.175 C 
BRANCH  21  22
HETATM   22  O   UNK     0     125.398 127.562 125.244  0.00  0.00    -0.349 OA
HETATM   23  C   UNK     0     123.988 127.104 124.825  0.00  0.00     0.174 C 
ENDBRANCH  21  22
ENDBRANCH  20  21
ENDBRANCH  19  20
ENDBRANCH  12  19
BRANCH  16  24
HETATM   24  N   UNK     0     126.442 132.357 118.326  0.00  0.00    -0.116 N 
HETATM   25  O   UNK     0     125.738 132.850 119.604  0.00  0.00    -0.532 OA
HETATM   26  O   UNK     0     127.715 133.065 117.826  0.00  0.00    -0.532 OA
ENDBRANCH  16  24
BRANCH  10  27
HETATM   27  O   UNK     0     123.453 124.984 115.128  0.00  0.00    -0.313 OA
BRANCH  27  28
HETATM   28  C   UNK     0     124.245 124.383 113.951  0.00  0.00     0.124 C 
HETATM   29  C   UNK     0     125.743 124.705 113.787  0.00  0.00     0.033 C 
HETATM   30  C   UNK     0     123.540 123.461 112.940  0.00  0.00     0.033 C 
ENDBRANCH  27  28
ENDBRANCH  10  27
TORSDOF 7
ENDMDL
MODEL 2
REMARK VINA RESULT:      -7.4      2.671      6.478
REMARK  7 active torsions:
REMARK  status: ('A' for Active; 'I' for Inactive)
REMARK    1  A    between atoms: O_1  and  C_16 
REMARK    2  A    between atoms: O_1  and  C_24 
REMARK    3  A    between atoms: O_2  and  C_18 
REMARK    4  A    between atoms: O_2  and  C_26 
REMARK    5  A    between atoms: O_5  and  C_29 
REMARK    6  A    between atoms: N_9  and  C_22 
REMARK    7  A    between atoms: C_26  and  C_29 
ROOT
HETATM    1  O   UNK     0     125.853 130.761 120.109  0.00  0.00    -0.290 OA
HETATM    2  O   UNK     0     124.595 125.756 121.461  0.00  0.00    -0.284 OA
HETATM    3  N   UNK     0     125.200 127.060 116.323  0.00  0.00    -0.254 NA
HETATM    4  C   UNK     0     125.216 127.859 119.298  0.00  0.00     0.014 A 
HETATM    5  C   UNK     0     125.527 128.910 118.216  0.00  0.00     0.060 A 
HETATM    6  C   UNK     0     124.898 126.408 118.892  0.00  0.00     0.060 A 
HETATM    7  C   UNK     0     125.225 128.259 120.785  0.00  0.00     0.043 A 
HETATM    8  C   UNK     0     125.519 128.511 116.729  0.00  0.00     0.063 A 
HETATM    9  C   UNK     0     124.890 126.009 117.405  0.00  0.00     0.063 A 
HETATM   10  C   UNK     0     125.845 130.362 118.622  0.00  0.00     0.200 A 
HETATM   11  C   UNK     0     124.914 127.207 121.866  0.00  0.00     0.121 A 
HETATM   12  C   UNK     0     124.587 125.356 119.973  0.00  0.00     0.200 A 
HETATM   13  C   UNK     0     125.543 129.709 121.191  0.00  0.00     0.082 A 
HETATM   14  C   UNK     0     125.829 129.563 115.647  0.00  0.00     0.052 C 
HETATM   15  C   UNK     0     124.571 124.557 116.999  0.00  0.00     0.052 C 
HETATM   16  C   UNK     0     124.922 127.607 123.354  0.00  0.00     0.127 A 
HETATM   17  C   UNK     0     125.551 130.109 122.678  0.00  0.00     0.058 A 
HETATM   18  C   UNK     0     125.241 129.058 123.759  0.00  0.00     0.059 A 
ENDROOT
BRANCH  12  19
HETATM   19  O   UNK     0     124.269 123.905 119.568  0.00  0.00    -0.308 OA
BRANCH  19  20
HETATM   20  C   UNK     0     123.065 123.178 120.193  0.00  0.00     0.183 C 
BRANCH  20  21
HETATM   21  C   UNK     0     123.192 122.539 121.589  0.00  0.00     0.175 C 
BRANCH  21  22
HETATM   22  O   UNK     0     122.761 123.328 122.840  0.00  0.00    -0.349 OA
HETATM   23  C   UNK     0     121.561 122.850 123.678  0.00  0.00     0.174 C 
ENDBRANCH  21  22
ENDBRANCH  20  21
ENDBRANCH  19  20
ENDBRANCH  12  19
BRANCH  16  24
HETATM   24  N   UNK     0     124.612 126.555 124.435  0.00  0.00    -0.116 N 
HETATM   25  O   UNK     0     125.762 125.807 125.134  0.00  0.00    -0.532 OA
HETATM   26  O   UNK     0     123.151 126.251 124.817  0.00  0.00    -0.532 OA
ENDBRANCH  16  24
BRANCH  10  27
HETATM   27  O   UNK     0     126.156 131.412 117.541  0.00  0.00    -0.313 OA
BRANCH  27  28
HETATM   28  C   UNK     0     127.479 132.200 117.589  0.00  0.00     0.124 C 
HETATM   29  C   UNK     0     128.684 131.732 116.752  0.00  0.00     0.033 C 
HETATM   30  C   UNK     0     127.596 133.454 118.474  0.00  0.00     0.033 C 
ENDBRANCH  27  28
ENDBRANCH  10  27
TORSDOF 7
ENDMDL
MODEL 3
REMARK VINA RESULT:      -7.0      2.217      7.202
REMARK  7 active torsions:
REMARK  status: ('A' for Active; 'I' for Inactive)
REMARK    1  A    between atoms: O_1  and  C_16 
REMARK    2  A    between atoms: O_1  and  C_24 
REMARK    3  A    between atoms: O_2  and  C_18 
REMARK    4  A    between atoms: O_2  and  C_26 
REMARK    5  A    between atoms: O_5  and  C_29 
REMARK    6  A    between atoms: N_9  and  C_22 
REMARK    7  A    between atoms: C_26  and  C_29 
ROOT
HETATM    1  O   UNK     0     125.988 127.944 121.264  0.00  0.00    -0.290 OA
HETATM    2  O   UNK     0     124.289 126.745 116.351  0.00  0.00    -0.284 OA
HETATM    3  N   UNK     0     123.149 123.505 120.434  0.00  0.00    -0.254 NA
HETATM    4  C   UNK     0     124.475 126.065 119.350  0.00  0.00     0.014 A 
HETATM    5  C   UNK     0     124.568 125.724 120.848  0.00  0.00     0.060 A 
HETATM    6  C   UNK     0     123.719 125.125 118.392  0.00  0.00     0.060 A 
HETATM    7  C   UNK     0     125.139 127.344 118.808  0.00  0.00     0.043 A 
HETATM    8  C   UNK     0     123.905 124.445 121.390  0.00  0.00     0.063 A 
HETATM    9  C   UNK     0     123.056 123.845 118.934  0.00  0.00     0.063 A 
HETATM   10  C   UNK     0     125.325 126.664 121.806  0.00  0.00     0.200 A 
HETATM   11  C   UNK     0     125.046 127.684 117.309  0.00  0.00     0.121 A 
HETATM   12  C   UNK     0     123.626 125.465 116.893  0.00  0.00     0.200 A 
HETATM   13  C   UNK     0     125.895 128.284 119.765  0.00  0.00     0.082 A 
HETATM   14  C   UNK     0     123.998 124.105 122.890  0.00  0.00     0.052 C 
HETATM   15  C   UNK     0     122.299 122.905 117.977  0.00  0.00     0.052 C 
HETATM   16  C   UNK     0     125.709 128.964 116.767  0.00  0.00     0.127 A 
HETATM   17  C   UNK     0     126.558 129.564 119.223  0.00  0.00     0.058 A 
HETATM   18  C   UNK     0     126.465 129.904 117.725  0.00  0.00     0.059 A 
ENDROOT
BRANCH  12  19
HETATM   19  O   UNK     0     122.870 124.525 115.935  0.00  0.00    -0.308 OA
BRANCH  19  20
HETATM   20  C   UNK     0     121.737 125.077 115.051  0.00  0.00     0.183 C 
BRANCH  20  21
HETATM   21  C   UNK     0     120.978 124.136 114.096  0.00  0.00     0.175 C 
BRANCH  21  22
HETATM   22  O   UNK     0     120.035 124.720 113.028  0.00  0.00    -0.349 OA
HETATM   23  C   UNK     0     118.884 123.864 112.465  0.00  0.00     0.174 C 
ENDBRANCH  21  22
ENDBRANCH  20  21
ENDBRANCH  19  20
ENDBRANCH  12  19
BRANCH  16  24
HETATM   24  N   UNK     0     125.616 129.304 115.268  0.00  0.00    -0.116 N 
HETATM   25  O   UNK     0     126.037 128.263 114.214  0.00  0.00    -0.532 OA
HETATM   26  O   UNK     0     125.102 130.686 114.821  0.00  0.00    -0.532 OA
ENDBRANCH  16  24
BRANCH  10  27
HETATM   27  O   UNK     0     125.417 126.324 123.304  0.00  0.00    -0.313 OA
BRANCH  27  28
HETATM   28  C   UNK     0     125.075 127.393 124.359  0.00  0.00     0.124 C 
HETATM   29  C   UNK     0     126.162 128.369 124.848  0.00  0.00     0.033 C 
HETATM   30  C   UNK     0     123.646 127.486 124.926  0.00  0.00     0.033 C 
ENDBRANCH  27  28
ENDBRANCH  10  27
TORSDOF 7
ENDMDL
MODEL 4
REMARK VINA RESULT:      -6.6     45.415     48.855
REMARK  7 active torsions:
REMARK  status: ('A' for Active; 'I' for Inactive)
REMARK    1  A    between atoms: O_1  and  C_16 
REMARK    2  A    between atoms: O_1  and  C_24 
REMARK    3  A    between atoms: O_2  and  C_18 
REMARK    4  A    between atoms: O_2  and  C_26 
REMARK    5  A    between atoms: O_5  and  C_29 
REMARK    6  A    between atoms: N_9  and  C_22 
REMARK    7  A    between atoms: C_26  and  C_29 
ROOT
HETATM    1  O   UNK     0     125.511 117.801 163.668  0.00  0.00    -0.290 OA
HETATM    2  O   UNK     0     123.191 119.885 167.997  0.00  0.00    -0.284 OA
HETATM    3  N   UNK     0     120.865 115.842 165.409  0.00  0.00    -0.254 NA
HETATM    4  C   UNK     0     123.189 117.843 165.691  0.00  0.00     0.014 A 
HETATM    5  C   UNK     0     123.188 116.822 164.539  0.00  0.00     0.060 A 
HETATM    6  C   UNK     0     122.028 117.864 166.703  0.00  0.00     0.060 A 
HETATM    7  C   UNK     0     124.351 118.843 165.832  0.00  0.00     0.043 A 
HETATM    8  C   UNK     0     122.025 115.821 164.398  0.00  0.00     0.063 A 
HETATM    9  C   UNK     0     120.866 116.863 166.562  0.00  0.00     0.063 A 
HETATM   10  C   UNK     0     124.349 116.801 163.527  0.00  0.00     0.200 A 
HETATM   11  C   UNK     0     124.352 119.864 166.985  0.00  0.00     0.121 A 
HETATM   12  C   UNK     0     122.029 118.885 167.856  0.00  0.00     0.200 A 
HETATM   13  C   UNK     0     125.512 118.823 164.821  0.00  0.00     0.082 A 
HETATM   14  C   UNK     0     122.024 114.800 163.245  0.00  0.00     0.052 C 
HETATM   15  C   UNK     0     119.704 116.884 167.573  0.00  0.00     0.052 C 
HETATM   16  C   UNK     0     125.514 120.865 167.127  0.00  0.00     0.127 A 
HETATM   17  C   UNK     0     126.674 119.823 164.963  0.00  0.00     0.058 A 
HETATM   18  C   UNK     0     126.676 120.844 166.115  0.00  0.00     0.059 A 
ENDROOT
BRANCH  12  19
HETATM   19  O   UNK     0     120.868 118.906 168.868  0.00  0.00    -0.308 OA
BRANCH  19  20
HETATM   20  C   UNK     0     121.161 119.039 170.373  0.00  0.00     0.183 C 
BRANCH  20  21
HETATM   21  C   UNK     0     121.130 120.425 171.044  0.00  0.00     0.175 C 
BRANCH  21  22
HETATM   22  O   UNK     0     122.212 121.468 170.709  0.00  0.00    -0.349 OA
HETATM   23  C   UNK     0     121.810 122.917 170.378  0.00  0.00     0.174 C 
ENDBRANCH  21  22
ENDBRANCH  20  21
ENDBRANCH  19  20
ENDBRANCH  12  19
BRANCH  16  24
HETATM   24  N   UNK     0     125.516 121.886 168.280  0.00  0.00    -0.116 N 
HETATM   25  O   UNK     0     125.479 121.399 169.740  0.00  0.00    -0.532 OA
HETATM   26  O   UNK     0     125.553 123.395 167.972  0.00  0.00    -0.532 OA
ENDBRANCH  16  24
BRANCH  10  27
HETATM   27  O   UNK     0     124.347 115.780 162.375  0.00  0.00    -0.313 OA
BRANCH  27  28
HETATM   28  C   UNK     0     125.276 114.552 162.433  0.00  0.00     0.124 C 
HETATM   29  C   UNK     0     126.073 114.130 161.185  0.00  0.00     0.033 C 
HETATM   30  C   UNK     0     125.407 113.747 163.739  0.00  0.00     0.033 C 
ENDBRANCH  27  28
ENDBRANCH  10  27
TORSDOF 7
ENDMDL
MODEL 5
REMARK VINA RESULT:      -6.6     45.731     50.408
REMARK  7 active torsions:
REMARK  status: ('A' for Active; 'I' for Inactive)
REMARK    1  A    between atoms: O_1  and  C_16 
REMARK    2  A    between atoms: O_1  and  C_24 
REMARK    3  A    between atoms: O_2  and  C_18 
REMARK    4  A    between atoms: O_2  and  C_26 
REMARK    5  A    between atoms: O_5  and  C_29 
REMARK    6  A    between atoms: N_9  and  C_22 
REMARK    7  A    between atoms: C_26  and  C_29 
ROOT
HETATM    1  O   UNK     0     117.973 140.271 164.968  0.00  0.00    -0.290 OA
HETATM    2  O   UNK     0     113.330 140.007 167.582  0.00  0.00    -0.284 OA
HETATM    3  N   UNK     0     113.384 140.891 162.321  0.00  0.00    -0.254 NA
HETATM    4  C   UNK     0     114.896 140.390 164.957  0.00  0.00     0.014 A 
HETATM    5  C   UNK     0     115.678 140.581 163.645  0.00  0.00     0.060 A 
HETATM    6  C   UNK     0     113.357 140.449 164.952  0.00  0.00     0.060 A 
HETATM    7  C   UNK     0     115.652 140.139 166.275  0.00  0.00     0.043 A 
HETATM    8  C   UNK     0     114.922 140.832 162.327  0.00  0.00     0.063 A 
HETATM    9  C   UNK     0     112.601 140.700 163.634  0.00  0.00     0.063 A 
HETATM   10  C   UNK     0     117.217 140.522 163.650  0.00  0.00     0.200 A 
HETATM   11  C   UNK     0     114.869 139.947 167.587  0.00  0.00     0.121 A 
HETATM   12  C   UNK     0     112.574 140.258 166.264  0.00  0.00     0.200 A 
HETATM   13  C   UNK     0     117.191 140.079 166.280  0.00  0.00     0.082 A 
HETATM   14  C   UNK     0     115.705 141.023 161.014  0.00  0.00     0.052 C 
HETATM   15  C   UNK     0     111.062 140.759 163.628  0.00  0.00     0.052 C 
HETATM   16  C   UNK     0     115.626 139.697 168.905  0.00  0.00     0.127 A 
HETATM   17  C   UNK     0     117.947 139.829 167.598  0.00  0.00     0.058 A 
HETATM   18  C   UNK     0     117.165 139.637 168.910  0.00  0.00     0.059 A 
ENDROOT
BRANCH  12  19
HETATM   19  O   UNK     0     111.035 140.317 166.259  0.00  0.00    -0.308 OA
BRANCH  19  20
HETATM   20  C   UNK     0     110.288 141.012 167.411  0.00  0.00     0.183 C 
BRANCH  20  21
HETATM   21  C   UNK     0     110.647 142.459 167.800  0.00  0.00     0.175 C 
BRANCH  21  22
HETATM   22  O   UNK     0     111.665 142.724 168.925  0.00  0.00    -0.349 OA
HETATM   23  C   UNK     0     112.975 143.474 168.617  0.00  0.00     0.174 C 
ENDBRANCH  21  22
ENDBRANCH  20  21
ENDBRANCH  19  20
ENDBRANCH  12  19
BRANCH  16  24
HETATM   24  N   UNK     0     114.843 139.505 170.218  0.00  0.00    -0.116 N 
HETATM   25  O   UNK     0     114.900 138.156 170.959  0.00  0.00    -0.532 OA
HETATM   26  O   UNK     0     114.003 140.663 170.790  0.00  0.00    -0.532 OA
ENDBRANCH  16  24
BRANCH  10  27
HETATM   27  O   UNK     0     117.999 140.713 162.338  0.00  0.00    -0.313 OA
BRANCH  27  28
HETATM   28  C   UNK     0     119.523 140.489 162.310  0.00  0.00     0.124 C 
HETATM   29  C   UNK     0     120.094 139.136 161.845  0.00  0.00     0.033 C 
HETATM   30  C   UNK     0     120.475 141.618 162.746  0.00  0.00     0.033 C 
ENDBRANCH  27  28
ENDBRANCH  10  27
TORSDOF 7
ENDMDL
MODEL 6
REMARK VINA RESULT:      -6.5     34.888     38.766
REMARK  7 active torsions:
REMARK  status: ('A' for Active; 'I' for Inactive)
REMARK    1  A    between atoms: O_1  and  C_16 
REMARK    2  A    between atoms: O_1  and  C_24 
REMARK    3  A    between atoms: O_2  and  C_18 
REMARK    4  A    between atoms: O_2  and  C_26 
REMARK    5  A    between atoms: O_5  and  C_29 
REMARK    6  A    between atoms: N_9  and  C_22 
REMARK    7  A    between atoms: C_26  and  C_29 
ROOT
HETATM    1  O   UNK     0     113.227 115.772 153.292  0.00  0.00    -0.290 OA
HETATM    2  O   UNK     0     108.198 114.938 151.718  0.00  0.00    -0.284 OA
HETATM    3  N   UNK     0     111.812 116.767 148.245  0.00  0.00    -0.254 NA
HETATM    4  C   UNK     0     111.079 115.826 151.085  0.00  0.00     0.014 A 
HETATM    5  C   UNK     0     112.519 116.270 150.768  0.00  0.00     0.060 A 
HETATM    6  C   UNK     0     110.005 115.853 149.982  0.00  0.00     0.060 A 
HETATM    7  C   UNK     0     110.713 115.355 152.505  0.00  0.00     0.043 A 
HETATM    8  C   UNK     0     112.885 116.740 149.349  0.00  0.00     0.063 A 
HETATM    9  C   UNK     0     110.371 116.323 148.562  0.00  0.00     0.063 A 
HETATM   10  C   UNK     0     113.593 116.243 151.872  0.00  0.00     0.200 A 
HETATM   11  C   UNK     0     109.272 114.912 152.821  0.00  0.00     0.121 A 
HETATM   12  C   UNK     0     108.564 115.409 150.298  0.00  0.00     0.200 A 
HETATM   13  C   UNK     0     111.786 115.329 153.608  0.00  0.00     0.082 A 
HETATM   14  C   UNK     0     114.326 117.184 149.032  0.00  0.00     0.052 C 
HETATM   15  C   UNK     0     109.297 116.350 147.458  0.00  0.00     0.052 C 
HETATM   16  C   UNK     0     108.906 114.441 154.241  0.00  0.00     0.127 A 
HETATM   17  C   UNK     0     111.420 114.858 155.028  0.00  0.00     0.058 A 
HETATM   18  C   UNK     0     109.980 114.414 155.345  0.00  0.00     0.059 A 
ENDROOT
BRANCH  12  19
HETATM   19  O   UNK     0     107.490 115.436 149.195  0.00  0.00    -0.308 OA
BRANCH  19  20
HETATM   20  C   UNK     0     106.258 114.518 149.297  0.00  0.00     0.183 C 
BRANCH  20  21
HETATM   21  C   UNK     0     104.992 114.835 148.480  0.00  0.00     0.175 C 
BRANCH  21  22
HETATM   22  O   UNK     0     104.804 114.221 147.080  0.00  0.00    -0.349 OA
HETATM   23  C   UNK     0     103.834 113.041 146.880  0.00  0.00     0.174 C 
ENDBRANCH  21  22
ENDBRANCH  20  21
ENDBRANCH  19  20
ENDBRANCH  12  19
BRANCH  16  24
HETATM   24  N   UNK     0     107.465 113.997 154.558  0.00  0.00    -0.116 N 
HETATM   25  O   UNK     0     106.523 114.937 155.334  0.00  0.00    -0.532 OA
HETATM   26  O   UNK     0     106.966 112.614 154.098  0.00  0.00    -0.532 OA
ENDBRANCH  16  24
BRANCH  10  27
HETATM   27  O   UNK     0     115.033 116.686 151.555  0.00  0.00    -0.313 OA
BRANCH  27  28
HETATM   28  C   UNK     0     116.210 115.732 151.830  0.00  0.00     0.124 C 
HETATM   29  C   UNK     0     116.079 114.233 151.504  0.00  0.00     0.033 C 
HETATM   30  C   UNK     0     117.520 116.278 152.429  0.00  0.00     0.033 C 
ENDBRANCH  27  28
ENDBRANCH  10  27
TORSDOF 7
ENDMDL
MODEL 7
REMARK VINA RESULT:      -6.4      2.798      7.104
REMARK  7 active torsions:
REMARK  status: ('A' for Active; 'I' for Inactive)
REMARK    1  A    between atoms: O_1  and  C_16 
REMARK    2  A    between atoms: O_1  and  C_24 
REMARK    3  A    between atoms: O_2  and  C_18 
REMARK    4  A    between atoms: O_2  and  C_26 
REMARK    5  A    between atoms: O_5  and  C_29 
REMARK    6  A    between atoms: N_9  and  C_22 
REMARK    7  A    between atoms: C_26  and  C_29 
ROOT
HETATM    1  O   UNK     0     125.381 128.979 116.632  0.00  0.00    -0.290 OA
HETATM    2  O   UNK     0     122.691 124.373 116.774  0.00  0.00    -0.284 OA
HETATM    3  N   UNK     0     125.151 126.162 121.156  0.00  0.00    -0.254 NA
HETATM    4  C   UNK     0     124.408 126.505 118.187  0.00  0.00     0.014 A 
HETATM    5  C   UNK     0     125.266 127.570 118.894  0.00  0.00     0.060 A 
HETATM    6  C   UNK     0     123.921 125.268 118.965  0.00  0.00     0.060 A 
HETATM    7  C   UNK     0     124.036 126.676 116.703  0.00  0.00     0.043 A 
HETATM    8  C   UNK     0     125.637 127.399 120.379  0.00  0.00     0.063 A 
HETATM    9  C   UNK     0     124.293 125.097 120.450  0.00  0.00     0.063 A 
HETATM   10  C   UNK     0     125.752 128.807 118.116  0.00  0.00     0.200 A 
HETATM   11  C   UNK     0     123.178 125.611 115.996  0.00  0.00     0.121 A 
HETATM   12  C   UNK     0     123.063 124.202 118.258  0.00  0.00     0.200 A 
HETATM   13  C   UNK     0     124.522 127.913 115.925  0.00  0.00     0.082 A 
HETATM   14  C   UNK     0     126.496 128.465 121.086  0.00  0.00     0.052 C 
HETATM   15  C   UNK     0     123.806 123.859 121.227  0.00  0.00     0.052 C 
HETATM   16  C   UNK     0     122.806 125.782 114.511  0.00  0.00     0.127 A 
HETATM   17  C   UNK     0     124.150 128.084 114.440  0.00  0.00     0.058 A 
HETATM   18  C   UNK     0     123.293 127.019 113.733  0.00  0.00     0.059 A 
ENDROOT
BRANCH  12  19
HETATM   19  O   UNK     0     122.576 122.965 119.036  0.00  0.00    -0.308 OA
BRANCH  19  20
HETATM   20  C   UNK     0     122.011 121.751 118.276  0.00  0.00     0.183 C 
BRANCH  20  21
HETATM   21  C   UNK     0     120.850 120.938 118.878  0.00  0.00     0.175 C 
BRANCH  21  22
HETATM   22  O   UNK     0     119.719 120.421 117.970  0.00  0.00    -0.349 OA
HETATM   23  C   UNK     0     120.052 119.813 116.594  0.00  0.00     0.174 C 
ENDBRANCH  21  22
ENDBRANCH  20  21
ENDBRANCH  19  20
ENDBRANCH  12  19
BRANCH  16  24
HETATM   24  N   UNK     0     121.948 124.716 113.804  0.00  0.00    -0.116 N 
HETATM   25  O   UNK     0     122.589 123.396 113.339  0.00  0.00    -0.532 OA
HETATM   26  O   UNK     0     120.448 124.971 113.563  0.00  0.00    -0.532 OA
ENDBRANCH  16  24
BRANCH  10  27
HETATM   27  O   UNK     0     126.610 129.872 118.823  0.00  0.00    -0.313 OA
BRANCH  27  28
HETATM   28  C   UNK     0     126.547 131.341 118.364  0.00  0.00     0.124 C 
HETATM   29  C   UNK     0     125.685 132.355 119.140  0.00  0.00     0.033 C 
HETATM   30  C   UNK     0     127.346 131.796 117.128  0.00  0.00     0.033 C 
ENDBRANCH  27  28
ENDBRANCH  10  27
TORSDOF 7
ENDMDL
MODEL 8
REMARK VINA RESULT:      -6.3     14.798     18.670
REMARK  7 active torsions:
REMARK  status: ('A' for Active; 'I' for Inactive)
REMARK    1  A    between atoms: O_1  and  C_16 
REMARK    2  A    between atoms: O_1  and  C_24 
REMARK    3  A    between atoms: O_2  and  C_18 
REMARK    4  A    between atoms: O_2  and  C_26 
REMARK    5  A    between atoms: O_5  and  C_29 
REMARK    6  A    between atoms: N_9  and  C_22 
REMARK    7  A    between atoms: C_26  and  C_29 
ROOT
HETATM    1  O   UNK     0     135.762 138.441 130.500  0.00  0.00    -0.290 OA
HETATM    2  O   UNK     0     130.811 138.833 128.552  0.00  0.00    -0.284 OA
HETATM    3  N   UNK     0     131.654 139.265 133.802  0.00  0.00    -0.254 NA
HETATM    4  C   UNK     0     132.743 138.846 130.952  0.00  0.00     0.014 A 
HETATM    5  C   UNK     0     133.708 138.853 132.151  0.00  0.00     0.060 A 
HETATM    6  C   UNK     0     131.232 139.049 131.177  0.00  0.00     0.060 A 
HETATM    7  C   UNK     0     133.287 138.637 129.526  0.00  0.00     0.043 A 
HETATM    8  C   UNK     0     133.164 139.062 133.576  0.00  0.00     0.063 A 
HETATM    9  C   UNK     0     130.688 139.258 132.603  0.00  0.00     0.063 A 
HETATM   10  C   UNK     0     135.218 138.651 131.925  0.00  0.00     0.200 A 
HETATM   11  C   UNK     0     132.321 138.630 128.326  0.00  0.00     0.121 A 
HETATM   12  C   UNK     0     130.266 139.042 129.978  0.00  0.00     0.200 A 
HETATM   13  C   UNK     0     134.796 138.434 129.300  0.00  0.00     0.082 A 
HETATM   14  C   UNK     0     134.130 139.069 134.776  0.00  0.00     0.052 C 
HETATM   15  C   UNK     0     129.178 139.461 132.828  0.00  0.00     0.052 C 
HETATM   16  C   UNK     0     132.865 138.421 126.901  0.00  0.00     0.127 A 
HETATM   17  C   UNK     0     135.340 138.225 127.875  0.00  0.00     0.058 A 
HETATM   18  C   UNK     0     134.375 138.218 126.675  0.00  0.00     0.059 A 
ENDROOT
BRANCH  12  19
HETATM   19  O   UNK     0     128.756 139.245 130.203  0.00  0.00    -0.308 OA
BRANCH  19  20
HETATM   20  C   UNK     0     127.739 138.444 129.370  0.00  0.00     0.183 C 
BRANCH  20  21
HETATM   21  C   UNK     0     127.780 136.904 129.377  0.00  0.00     0.175 C 
BRANCH  21  22
HETATM   22  O   UNK     0     127.654 136.137 130.706  0.00  0.00    -0.349 OA
HETATM   23  C   UNK     0     128.891 135.941 131.603  0.00  0.00     0.174 C 
ENDBRANCH  21  22
ENDBRANCH  20  21
ENDBRANCH  19  20
ENDBRANCH  12  19
BRANCH  16  24
HETATM   24  N   UNK     0     131.899 138.414 125.701  0.00  0.00    -0.116 N 
HETATM   25  O   UNK     0     131.146 139.700 125.312  0.00  0.00    -0.532 OA
HETATM   26  O   UNK     0     131.686 137.122 124.891  0.00  0.00    -0.532 OA
ENDBRANCH  16  24
BRANCH  10  27
HETATM   27  O   UNK     0     136.183 138.657 133.125  0.00  0.00    -0.313 OA
BRANCH  27  28
HETATM   28  C   UNK     0     136.956 137.379 133.498  0.00  0.00     0.124 C 
HETATM   29  C   UNK     0     136.194 136.065 133.754  0.00  0.00     0.033 C 
HETATM   30  C   UNK     0     138.491 137.414 133.616  0.00  0.00     0.033 C 
ENDBRANCH  27  28
ENDBRANCH  10  27
TORSDOF 7
ENDMDL
MODEL 9
REMARK VINA RESULT:      -6.2     46.601     49.952
REMARK  7 active torsions:
REMARK  status: ('A' for Active; 'I' for Inactive)
REMARK    1  A    between atoms: O_1  and  C_16 
REMARK    2  A    between atoms: O_1  and  C_24 
REMARK    3  A    between atoms: O_2  and  C_18 
REMARK    4  A    between atoms: O_2  and  C_26 
REMARK    5  A    between atoms: O_5  and  C_29 
REMARK    6  A    between atoms: N_9  and  C_22 
REMARK    7  A    between atoms: C_26  and  C_29 
ROOT
HETATM    1  O   UNK     0     125.072 120.817 167.819  0.00  0.00    -0.290 OA
HETATM    2  O   UNK     0     122.443 116.887 165.347  0.00  0.00    -0.284 OA
HETATM    3  N   UNK     0     120.193 119.423 169.467  0.00  0.00    -0.254 NA
HETATM    4  C   UNK     0     122.569 119.042 167.545  0.00  0.00     0.014 A 
HETATM    5  C   UNK     0     122.632 120.119 168.643  0.00  0.00     0.060 A 
HETATM    6  C   UNK     0     121.318 118.155 167.407  0.00  0.00     0.060 A 
HETATM    7  C   UNK     0     123.758 118.852 166.584  0.00  0.00     0.043 A 
HETATM    8  C   UNK     0     121.444 120.310 169.604  0.00  0.00     0.063 A 
HETATM    9  C   UNK     0     120.130 118.345 168.368  0.00  0.00     0.063 A 
HETATM   10  C   UNK     0     123.884 121.007 168.780  0.00  0.00     0.200 A 
HETATM   11  C   UNK     0     123.694 117.774 165.485  0.00  0.00     0.121 A 
HETATM   12  C   UNK     0     121.255 117.077 166.308  0.00  0.00     0.200 A 
HETATM   13  C   UNK     0     125.009 119.739 166.721  0.00  0.00     0.082 A 
HETATM   14  C   UNK     0     121.507 121.388 170.702  0.00  0.00     0.052 C 
HETATM   15  C   UNK     0     118.878 117.458 168.230  0.00  0.00     0.052 C 
HETATM   16  C   UNK     0     124.883 117.584 164.524  0.00  0.00     0.127 A 
HETATM   17  C   UNK     0     126.197 119.549 165.760  0.00  0.00     0.058 A 
HETATM   18  C   UNK     0     126.134 118.472 164.662  0.00  0.00     0.059 A 
ENDROOT
BRANCH  12  19
HETATM   19  O   UNK     0     120.003 116.190 166.171  0.00  0.00    -0.308 OA
BRANCH  19  20
HETATM   20  C   UNK     0     120.155 114.683 165.897  0.00  0.00     0.183 C 
BRANCH  20  21
HETATM   21  C   UNK     0     120.465 114.186 164.472  0.00  0.00     0.175 C 
BRANCH  21  22
HETATM   22  O   UNK     0     121.924 113.953 164.038  0.00  0.00    -0.349 OA
HETATM   23  C   UNK     0     122.240 112.965 162.899  0.00  0.00     0.174 C 
ENDBRANCH  21  22
ENDBRANCH  20  21
ENDBRANCH  19  20
ENDBRANCH  12  19
BRANCH  16  24
HETATM   24  N   UNK     0     124.819 116.506 163.425  0.00  0.00    -0.116 N 
HETATM   25  O   UNK     0     125.812 115.329 163.444  0.00  0.00    -0.532 OA
HETATM   26  O   UNK     0     123.764 116.606 162.308  0.00  0.00    -0.532 OA
ENDBRANCH  16  24
BRANCH  10  27
HETATM   27  O   UNK     0     123.946 122.084 169.879  0.00  0.00    -0.313 OA
BRANCH  27  28
HETATM   28  C   UNK     0     124.934 121.932 171.051  0.00  0.00     0.124 C 
HETATM   29  C   UNK     0     125.173 123.109 172.014  0.00  0.00     0.033 C 
HETATM   30  C   UNK     0     125.681 120.602 171.260  0.00  0.00     0.033 C 
ENDBRANCH  27  28
ENDBRANCH  10  27
TORSDOF 7
ENDMDL
MODEL 10
REMARK VINA RESULT:      -6.2     46.639     50.977
REMARK  7 active torsions:
REMARK  status: ('A' for Active; 'I' for Inactive)
REMARK    1  A    between atoms: O_1  and  C_16 
REMARK    2  A    between atoms: O_1  and  C_24 
REMARK    3  A    between atoms: O_2  and  C_18 
REMARK    4  A    between atoms: O_2  and  C_26 
REMARK    5  A    between atoms: O_5  and  C_29 
REMARK    6  A    between atoms: N_9  and  C_22 
REMARK    7  A    between atoms: C_26  and  C_29 
ROOT
HETATM    1  O   UNK     0     124.797 121.715 170.279  0.00  0.00    -0.290 OA
HETATM    2  O   UNK     0     124.011 116.799 168.360  0.00  0.00    -0.284 OA
HETATM    3  N   UNK     0     125.328 120.775 165.055  0.00  0.00    -0.254 NA
HETATM    4  C   UNK     0     124.712 119.763 167.898  0.00  0.00     0.014 A 
HETATM    5  C   UNK     0     125.062 121.244 167.667  0.00  0.00     0.060 A 
HETATM    6  C   UNK     0     124.669 118.787 166.707  0.00  0.00     0.060 A 
HETATM    7  C   UNK     0     124.404 119.257 169.320  0.00  0.00     0.043 A 
HETATM    8  C   UNK     0     125.370 121.750 166.245  0.00  0.00     0.063 A 
HETATM    9  C   UNK     0     124.977 119.293 165.286  0.00  0.00     0.063 A 
HETATM   10  C   UNK     0     125.105 122.220 168.857  0.00  0.00     0.200 A 
HETATM   11  C   UNK     0     124.054 117.775 169.551  0.00  0.00     0.121 A 
HETATM   12  C   UNK     0     124.319 117.305 166.938  0.00  0.00     0.200 A 
HETATM   13  C   UNK     0     124.446 120.233 170.510  0.00  0.00     0.082 A 
HETATM   14  C   UNK     0     125.720 123.232 166.014  0.00  0.00     0.052 C 
HETATM   15  C   UNK     0     124.935 118.316 164.095  0.00  0.00     0.052 C 
HETATM   16  C   UNK     0     123.746 117.270 170.972  0.00  0.00     0.127 A 
HETATM   17  C   UNK     0     124.138 119.727 171.931  0.00  0.00     0.058 A 
HETATM   18  C   UNK     0     123.788 118.246 172.163  0.00  0.00     0.059 A 
ENDROOT
BRANCH  12  19
HETATM   19  O   UNK     0     124.277 116.329 165.748  0.00  0.00    -0.308 OA
BRANCH  19  20
HETATM   20  C   UNK     0     124.930 114.940 165.868  0.00  0.00     0.183 C 
BRANCH  20  21
HETATM   21  C   UNK     0     124.391 113.761 165.036  0.00  0.00     0.175 C 
BRANCH  21  22
HETATM   22  O   UNK     0     124.411 113.830 163.498  0.00  0.00    -0.349 OA
HETATM   23  C   UNK     0     125.472 114.684 162.779  0.00  0.00     0.174 C 
ENDBRANCH  21  22
ENDBRANCH  20  21
ENDBRANCH  19  20
ENDBRANCH  12  19
BRANCH  16  24
HETATM   24  N   UNK     0     123.395 115.788 171.203  0.00  0.00    -0.116 N 
HETATM   25  O   UNK     0     121.922 115.339 171.226  0.00  0.00    -0.532 OA
HETATM   26  O   UNK     0     124.518 114.754 171.412  0.00  0.00    -0.532 OA
ENDBRANCH  16  24
BRANCH  10  27
HETATM   27  O   UNK     0     125.455 123.702 168.626  0.00  0.00    -0.313 OA
BRANCH  27  28
HETATM   28  C   UNK     0     124.873 124.784 169.554  0.00  0.00     0.124 C 
HETATM   29  C   UNK     0     125.726 126.006 169.942  0.00  0.00     0.033 C 
HETATM   30  C   UNK     0     123.437 124.646 170.093  0.00  0.00     0.033 C 
ENDBRANCH  27  28
ENDBRANCH  10  27
TORSDOF 7
ENDMDL
