MODEL 1
REMARK VINA RESULT:      -6.4      0.000      0.000
REMARK  2 active torsions:
REMARK  status: ('A' for Active; 'I' for Inactive)
REMARK    1  A    between atoms: N_6  and  C_14 
REMARK    2  A    between atoms: C_9  and  C_10 
ROOT
HETATM    1  O   UNK     0     150.319 125.920 194.018  0.00  0.00    -0.168 OA
HETATM    2  N   UNK     0     148.235 124.552 193.253  0.00  0.00    -0.223 NA
HETATM    3  N   UNK     0     147.971 127.033 190.856  0.00  0.00    -0.241 NA
HETATM    4  C   UNK     0     146.340 124.822 191.244  0.00  0.00     0.014 A 
HETATM    5  C   UNK     0     146.989 124.125 192.455  0.00  0.00     0.059 A 
HETATM    6  C   UNK     0     146.776 126.116 190.533  0.00  0.00     0.071 A 
HETATM    7  C   UNK     0     145.030 124.211 190.547  0.00  0.00     0.075 A 
HETATM    8  C   UNK     0     146.373 122.770 193.052  0.00  0.00     0.052 A 
HETATM    9  C   UNK     0     149.023 126.883 191.971  0.00  0.00     0.146 A 
HETATM   10  C   UNK     0     144.389 122.857 191.119  0.00  0.00     0.087 A 
HETATM   11  C   UNK     0     149.140 125.779 193.038  0.00  0.00     0.232 A 
HETATM   12  C   UNK     0     145.065 122.132 192.380  0.00  0.00     0.052 A 
ENDROOT
BRANCH   6  13
HETATM   13  C   UNK     0     145.904 126.550 189.341  0.00  0.00    -0.027 A 
HETATM   14  C   UNK     0     144.674 127.448 189.573  0.00  0.00     0.024 A 
HETATM   15  C   UNK     0     143.802 127.882 188.379  0.00  0.00     0.004 A 
HETATM   16  C   UNK     0     144.160 127.418 186.956  0.00  0.00     0.001 A 
HETATM   17  C   UNK     0     145.389 126.521 186.723  0.00  0.00     0.004 A 
HETATM   18  C   UNK     0     146.261 126.087 187.916  0.00  0.00     0.024 A 
ENDBRANCH   6  13
BRANCH  10  19
HETATM   19  N   UNK     0     143.131 122.257 190.462  0.00  0.00    -0.122 N 
HETATM   20  O   UNK     0     141.743 122.845 190.776  0.00  0.00    -0.532 OA
HETATM   21  O   UNK     0     143.263 121.069 189.491  0.00  0.00    -0.532 OA
ENDBRANCH  10  19
TORSDOF 2
ENDMDL
MODEL 2
REMARK VINA RESULT:      -5.8     31.882     34.398
REMARK  2 active torsions:
REMARK  status: ('A' for Active; 'I' for Inactive)
REMARK    1  A    between atoms: N_6  and  C_14 
REMARK    2  A    between atoms: C_9  and  C_10 
ROOT
HETATM    1  O   UNK     0     124.229 109.364 169.332  0.00  0.00    -0.168 OA
HETATM    2  N   UNK     0     125.297 107.111 168.570  0.00  0.00    -0.223 NA
HETATM    3  N   UNK     0     128.272 108.731 169.275  0.00  0.00    -0.241 NA
HETATM    4  C   UNK     0     127.889 106.148 168.334  0.00  0.00     0.014 A 
HETATM    5  C   UNK     0     126.355 106.044 168.233  0.00  0.00     0.059 A 
HETATM    6  C   UNK     0     128.741 107.343 168.797  0.00  0.00     0.071 A 
HETATM    7  C   UNK     0     128.826 104.910 167.930  0.00  0.00     0.075 A 
HETATM    8  C   UNK     0     125.653 104.696 167.721  0.00  0.00     0.052 A 
HETATM    9  C   UNK     0     126.834 109.265 169.406  0.00  0.00     0.146 A 
HETATM   10  C   UNK     0     128.157 103.547 167.414  0.00  0.00     0.087 A 
HETATM   11  C   UNK     0     125.509 108.544 169.092  0.00  0.00     0.232 A 
HETATM   12  C   UNK     0     126.561 103.439 167.309  0.00  0.00     0.052 A 
ENDROOT
BRANCH   6  13
HETATM   13  C   UNK     0     130.265 107.123 168.782  0.00  0.00    -0.027 A 
HETATM   14  C   UNK     0     130.988 106.647 170.057  0.00  0.00     0.024 A 
HETATM   15  C   UNK     0     132.512 106.427 170.041  0.00  0.00     0.004 A 
HETATM   16  C   UNK     0     133.313 106.681 168.752  0.00  0.00     0.001 A 
HETATM   17  C   UNK     0     132.592 107.156 167.477  0.00  0.00     0.004 A 
HETATM   18  C   UNK     0     131.068 107.377 167.492  0.00  0.00     0.024 A 
ENDBRANCH   6  13
BRANCH  10  19
HETATM   19  N   UNK     0     129.043 102.349 167.022  0.00  0.00    -0.122 N 
HETATM   20  O   UNK     0     130.263 101.979 167.886  0.00  0.00    -0.532 OA
HETATM   21  O   UNK     0     128.708 101.523 165.767  0.00  0.00    -0.532 OA
ENDBRANCH  10  19
TORSDOF 2
ENDMDL
MODEL 3
REMARK VINA RESULT:      -5.8      1.855      2.279
REMARK  2 active torsions:
REMARK  status: ('A' for Active; 'I' for Inactive)
REMARK    1  A    between atoms: N_6  and  C_14 
REMARK    2  A    between atoms: C_9  and  C_10 
ROOT
HETATM    1  O   UNK     0     149.616 123.740 196.526  0.00  0.00    -0.168 OA
HETATM    2  N   UNK     0     147.804 123.061 194.779  0.00  0.00    -0.223 NA
HETATM    3  N   UNK     0     148.524 126.156 193.409  0.00  0.00    -0.241 NA
HETATM    4  C   UNK     0     146.697 124.259 192.534  0.00  0.00     0.014 A 
HETATM    5  C   UNK     0     146.860 123.126 193.564  0.00  0.00     0.059 A 
HETATM    6  C   UNK     0     147.437 125.607 192.465  0.00  0.00     0.071 A 
HETATM    7  C   UNK     0     145.646 124.131 191.328  0.00  0.00     0.075 A 
HETATM    8  C   UNK     0     145.984 121.786 193.459  0.00  0.00     0.052 A 
HETATM    9  C   UNK     0     149.138 125.491 194.655  0.00  0.00     0.146 A 
HETATM   10  C   UNK     0     144.755 122.805 191.193  0.00  0.00     0.087 A 
HETATM   11  C   UNK     0     148.818 124.114 195.265  0.00  0.00     0.232 A 
HETATM   12  C   UNK     0     144.924 121.625 192.266  0.00  0.00     0.052 A 
ENDROOT
BRANCH   6  13
HETATM   13  C   UNK     0     147.039 126.530 191.298  0.00  0.00    -0.027 A 
HETATM   14  C   UNK     0     145.960 127.609 191.503  0.00  0.00     0.024 A 
HETATM   15  C   UNK     0     145.562 128.532 190.335  0.00  0.00     0.004 A 
HETATM   16  C   UNK     0     146.242 128.374 188.964  0.00  0.00     0.001 A 
HETATM   17  C   UNK     0     147.321 127.295 188.758  0.00  0.00     0.004 A 
HETATM   18  C   UNK     0     147.719 126.373 189.925  0.00  0.00     0.024 A 
ENDBRANCH   6  13
BRANCH  10  19
HETATM   19  N   UNK     0     143.741 122.666 190.041  0.00  0.00    -0.122 N 
HETATM   20  O   UNK     0     143.224 121.274 189.635  0.00  0.00    -0.532 OA
HETATM   21  O   UNK     0     143.247 123.920 189.296  0.00  0.00    -0.532 OA
ENDBRANCH  10  19
TORSDOF 2
ENDMDL
MODEL 4
REMARK VINA RESULT:      -5.8     84.052     86.728
REMARK  2 active torsions:
REMARK  status: ('A' for Active; 'I' for Inactive)
REMARK    1  A    between atoms: N_6  and  C_14 
REMARK    2  A    between atoms: C_9  and  C_10 
ROOT
HETATM    1  O   UNK     0      95.185 141.597 116.629  0.00  0.00    -0.168 OA
HETATM    2  N   UNK     0      95.248 140.089 118.756  0.00  0.00    -0.223 NA
HETATM    3  N   UNK     0      95.286 143.119 120.427  0.00  0.00    -0.241 NA
HETATM    4  C   UNK     0      95.322 140.556 121.490  0.00  0.00     0.014 A 
HETATM    5  C   UNK     0      95.290 139.663 120.236  0.00  0.00     0.059 A 
HETATM    6  C   UNK     0      95.320 142.093 121.576  0.00  0.00     0.071 A 
HETATM    7  C   UNK     0      95.364 139.910 122.959  0.00  0.00     0.075 A 
HETATM    8  C   UNK     0      95.298 138.064 120.362  0.00  0.00     0.052 A 
HETATM    9  C   UNK     0      95.245 142.860 118.909  0.00  0.00     0.146 A 
HETATM   10  C   UNK     0      95.373 138.315 123.121  0.00  0.00     0.087 A 
HETATM   11  C   UNK     0      95.228 141.512 118.166  0.00  0.00     0.232 A 
HETATM   12  C   UNK     0      95.340 137.386 121.814  0.00  0.00     0.052 A 
ENDROOT
BRANCH   6  13
HETATM   13  C   UNK     0      95.357 142.684 122.997  0.00  0.00    -0.027 A 
HETATM   14  C   UNK     0      94.061 142.786 123.823  0.00  0.00     0.024 A 
HETATM   15  C   UNK     0      94.099 143.377 125.245  0.00  0.00     0.004 A 
HETATM   16  C   UNK     0      95.432 143.865 125.841  0.00  0.00     0.001 A 
HETATM   17  C   UNK     0      96.728 143.762 125.016  0.00  0.00     0.004 A 
HETATM   18  C   UNK     0      96.691 143.172 123.594  0.00  0.00     0.024 A 
ENDBRANCH   6  13
BRANCH  10  19
HETATM   19  N   UNK     0      95.414 137.679 124.524  0.00  0.00    -0.122 N 
HETATM   20  O   UNK     0      96.504 136.648 124.871  0.00  0.00    -0.532 OA
HETATM   21  O   UNK     0      94.364 138.075 125.578  0.00  0.00    -0.532 OA
ENDBRANCH  10  19
TORSDOF 2
ENDMDL
MODEL 5
REMARK VINA RESULT:      -5.7     85.121     87.435
REMARK  2 active torsions:
REMARK  status: ('A' for Active; 'I' for Inactive)
REMARK    1  A    between atoms: N_6  and  C_14 
REMARK    2  A    between atoms: C_9  and  C_10 
ROOT
HETATM    1  O   UNK     0     169.644 145.984 105.974  0.00  0.00    -0.168 OA
HETATM    2  N   UNK     0     170.040 147.645 107.945  0.00  0.00    -0.223 NA
HETATM    3  N   UNK     0     166.599 147.988 107.835  0.00  0.00    -0.241 NA
HETATM    4  C   UNK     0     168.408 149.232 109.532  0.00  0.00     0.014 A 
HETATM    5  C   UNK     0     169.762 148.659 109.070  0.00  0.00     0.059 A 
HETATM    6  C   UNK     0     167.002 148.934 108.982  0.00  0.00     0.071 A 
HETATM    7  C   UNK     0     168.330 150.289 110.737  0.00  0.00     0.075 A 
HETATM    8  C   UNK     0     171.129 149.102 109.781  0.00  0.00     0.052 A 
HETATM    9  C   UNK     0     167.505 147.107 106.954  0.00  0.00     0.146 A 
HETATM   10  C   UNK     0     169.678 150.754 111.470  0.00  0.00     0.087 A 
HETATM   11  C   UNK     0     169.037 146.955 107.003  0.00  0.00     0.232 A 
HETATM   12  C   UNK     0     171.087 150.157 110.989  0.00  0.00     0.052 A 
ENDROOT
BRANCH   6  13
HETATM   13  C   UNK     0     165.843 149.679 109.670  0.00  0.00    -0.027 A 
HETATM   14  C   UNK     0     165.425 151.077 109.176  0.00  0.00     0.024 A 
HETATM   15  C   UNK     0     164.266 151.822 109.865  0.00  0.00     0.004 A 
HETATM   16  C   UNK     0     163.527 151.170 111.047  0.00  0.00     0.001 A 
HETATM   17  C   UNK     0     163.944 149.773 111.542  0.00  0.00     0.004 A 
HETATM   18  C   UNK     0     165.103 149.028 110.853  0.00  0.00     0.024 A 
ENDBRANCH   6  13
BRANCH  10  19
HETATM   19  N   UNK     0     169.621 151.768 112.628  0.00  0.00    -0.122 N 
HETATM   20  O   UNK     0     170.923 152.265 113.281  0.00  0.00    -0.532 OA
HETATM   21  O   UNK     0     168.260 152.283 113.132  0.00  0.00    -0.532 OA
ENDBRANCH  10  19
TORSDOF 2
ENDMDL
MODEL 6
REMARK VINA RESULT:      -5.5     40.100     42.364
REMARK  2 active torsions:
REMARK  status: ('A' for Active; 'I' for Inactive)
REMARK    1  A    between atoms: N_6  and  C_14 
REMARK    2  A    between atoms: C_9  and  C_10 
ROOT
HETATM    1  O   UNK     0     114.035 150.017 180.931  0.00  0.00    -0.168 OA
HETATM    2  N   UNK     0     111.754 148.850 180.449  0.00  0.00    -0.223 NA
HETATM    3  N   UNK     0     113.752 146.138 179.657  0.00  0.00    -0.241 NA
HETATM    4  C   UNK     0     110.983 146.325 179.593  0.00  0.00     0.014 A 
HETATM    5  C   UNK     0     110.726 147.772 180.053  0.00  0.00     0.059 A 
HETATM    6  C   UNK     0     112.329 145.598 179.417  0.00  0.00     0.071 A 
HETATM    7  C   UNK     0     109.764 145.351 179.222  0.00  0.00     0.075 A 
HETATM    8  C   UNK     0     109.233 148.346 180.172  0.00  0.00     0.052 A 
HETATM    9  C   UNK     0     114.179 147.539 180.131  0.00  0.00     0.146 A 
HETATM   10  C   UNK     0     108.258 145.892 179.330  0.00  0.00     0.087 A 
HETATM   11  C   UNK     0     113.290 148.746 180.484  0.00  0.00     0.232 A 
HETATM   12  C   UNK     0     107.991 147.399 179.809  0.00  0.00     0.052 A 
ENDROOT
BRANCH   6  13
HETATM   13  C   UNK     0     112.241 144.137 178.938  0.00  0.00    -0.027 A 
HETATM   14  C   UNK     0     112.474 143.798 177.453  0.00  0.00     0.024 A 
HETATM   15  C   UNK     0     112.386 142.336 176.975  0.00  0.00     0.004 A 
HETATM   16  C   UNK     0     112.066 141.215 177.980  0.00  0.00     0.001 A 
HETATM   17  C   UNK     0     111.834 141.554 179.464  0.00  0.00     0.004 A 
HETATM   18  C   UNK     0     111.922 143.014 179.943  0.00  0.00     0.024 A 
ENDBRANCH   6  13
BRANCH  10  19
HETATM   19  N   UNK     0     107.076 144.969 178.977  0.00  0.00    -0.122 N 
HETATM   20  O   UNK     0     107.240 143.441 179.061  0.00  0.00    -0.532 OA
HETATM   21  O   UNK     0     105.730 145.576 178.541  0.00  0.00    -0.532 OA
ENDBRANCH  10  19
TORSDOF 2
ENDMDL
MODEL 7
REMARK VINA RESULT:      -5.5     29.385     30.841
REMARK  2 active torsions:
REMARK  status: ('A' for Active; 'I' for Inactive)
REMARK    1  A    between atoms: N_6  and  C_14 
REMARK    2  A    between atoms: C_9  and  C_10 
ROOT
HETATM    1  O   UNK     0     121.707 117.708 174.308  0.00  0.00    -0.168 OA
HETATM    2  N   UNK     0     122.668 119.790 173.067  0.00  0.00    -0.223 NA
HETATM    3  N   UNK     0     123.446 117.482 170.610  0.00  0.00    -0.241 NA
HETATM    4  C   UNK     0     123.916 120.217 170.626  0.00  0.00     0.014 A 
HETATM    5  C   UNK     0     123.340 120.656 171.985  0.00  0.00     0.059 A 
HETATM    6  C   UNK     0     123.963 118.805 170.014  0.00  0.00     0.071 A 
HETATM    7  C   UNK     0     124.582 121.285 169.630  0.00  0.00     0.075 A 
HETATM    8  C   UNK     0     123.389 122.193 172.442  0.00  0.00     0.052 A 
HETATM    9  C   UNK     0     122.753 117.245 171.965  0.00  0.00     0.146 A 
HETATM   10  C   UNK     0     124.647 122.829 170.056  0.00  0.00     0.087 A 
HETATM   11  C   UNK     0     122.407 118.273 173.059  0.00  0.00     0.232 A 
HETATM   12  C   UNK     0     124.047 123.286 171.471  0.00  0.00     0.052 A 
ENDROOT
BRANCH   6  13
HETATM   13  C   UNK     0     124.614 118.701 168.622  0.00  0.00    -0.027 A 
HETATM   14  C   UNK     0     123.756 118.880 167.356  0.00  0.00     0.024 A 
HETATM   15  C   UNK     0     124.408 118.775 165.964  0.00  0.00     0.004 A 
HETATM   16  C   UNK     0     125.916 118.493 165.839  0.00  0.00     0.001 A 
HETATM   17  C   UNK     0     126.774 118.314 167.105  0.00  0.00     0.004 A 
HETATM   18  C   UNK     0     126.123 118.418 168.497  0.00  0.00     0.024 A 
ENDBRANCH   6  13
BRANCH  10  19
HETATM   19  N   UNK     0     125.283 123.867 169.111  0.00  0.00    -0.122 N 
HETATM   20  O   UNK     0     125.595 125.285 169.624  0.00  0.00    -0.532 OA
HETATM   21  O   UNK     0     125.606 123.486 167.655  0.00  0.00    -0.532 OA
ENDBRANCH  10  19
TORSDOF 2
ENDMDL
MODEL 8
REMARK VINA RESULT:      -5.4     30.034     32.591
REMARK  2 active torsions:
REMARK  status: ('A' for Active; 'I' for Inactive)
REMARK    1  A    between atoms: N_6  and  C_14 
REMARK    2  A    between atoms: C_9  and  C_10 
ROOT
HETATM    1  O   UNK     0     124.158 151.051 186.108  0.00  0.00    -0.168 OA
HETATM    2  N   UNK     0     122.684 149.133 185.135  0.00  0.00    -0.223 NA
HETATM    3  N   UNK     0     123.522 147.522 188.080  0.00  0.00    -0.241 NA
HETATM    4  C   UNK     0     121.927 146.607 186.001  0.00  0.00     0.014 A 
HETATM    5  C   UNK     0     121.953 147.783 185.006  0.00  0.00     0.059 A 
HETATM    6  C   UNK     0     122.625 146.491 187.369  0.00  0.00     0.071 A 
HETATM    7  C   UNK     0     121.097 145.273 185.677  0.00  0.00     0.075 A 
HETATM    8  C   UNK     0     121.150 147.706 183.620  0.00  0.00     0.052 A 
HETATM    9  C   UNK     0     123.941 148.924 187.600  0.00  0.00     0.146 A 
HETATM   10  C   UNK     0     120.283 145.163 184.300  0.00  0.00     0.087 A 
HETATM   11  C   UNK     0     123.568 149.641 186.289  0.00  0.00     0.232 A 
HETATM   12  C   UNK     0     120.310 146.388 183.265  0.00  0.00     0.052 A 
ENDROOT
BRANCH   6  13
HETATM   13  C   UNK     0     122.397 145.170 188.125  0.00  0.00    -0.027 A 
HETATM   14  C   UNK     0     121.221 145.040 189.112  0.00  0.00     0.024 A 
HETATM   15  C   UNK     0     120.993 143.718 189.869  0.00  0.00     0.004 A 
HETATM   16  C   UNK     0     121.940 142.527 189.639  0.00  0.00     0.001 A 
HETATM   17  C   UNK     0     123.116 142.656 188.653  0.00  0.00     0.004 A 
HETATM   18  C   UNK     0     123.344 143.977 187.896  0.00  0.00     0.024 A 
ENDBRANCH   6  13
BRANCH  10  19
HETATM   19  N   UNK     0     119.480 143.889 183.974  0.00  0.00    -0.122 N 
HETATM   20  O   UNK     0     119.637 142.635 184.853  0.00  0.00    -0.532 OA
HETATM   21  O   UNK     0     118.522 143.871 182.769  0.00  0.00    -0.532 OA
ENDBRANCH  10  19
TORSDOF 2
ENDMDL
MODEL 9
REMARK VINA RESULT:      -5.4     32.829     35.358
REMARK  2 active torsions:
REMARK  status: ('A' for Active; 'I' for Inactive)
REMARK    1  A    between atoms: N_6  and  C_14 
REMARK    2  A    between atoms: C_9  and  C_10 
ROOT
HETATM    1  O   UNK     0     126.874  98.941 168.565  0.00  0.00    -0.168 OA
HETATM    2  N   UNK     0     129.335  99.618 168.029  0.00  0.00    -0.223 NA
HETATM    3  N   UNK     0     128.316 102.724 169.162  0.00  0.00    -0.241 NA
HETATM    4  C   UNK     0     130.814 101.957 168.227  0.00  0.00     0.014 A 
HETATM    5  C   UNK     0     130.611 100.469 167.886  0.00  0.00     0.059 A 
HETATM    6  C   UNK     0     129.794 102.961 168.795  0.00  0.00     0.071 A 
HETATM    7  C   UNK     0     132.236 102.666 168.003  0.00  0.00     0.075 A 
HETATM    8  C   UNK     0     131.814  99.587 167.298  0.00  0.00     0.052 A 
HETATM    9  C   UNK     0     127.495 101.426 169.052  0.00  0.00     0.146 A 
HETATM   10  C   UNK     0     133.461 101.813 167.417  0.00  0.00     0.087 A 
HETATM   11  C   UNK     0     127.949 100.044 168.548  0.00  0.00     0.232 A 
HETATM   12  C   UNK     0     133.248 100.264 167.062  0.00  0.00     0.052 A 
ENDROOT
BRANCH   6  13
HETATM   13  C   UNK     0     130.319 104.390 169.026  0.00  0.00    -0.027 A 
HETATM   14  C   UNK     0     131.021 104.747 170.350  0.00  0.00     0.024 A 
HETATM   15  C   UNK     0     131.547 106.177 170.581  0.00  0.00     0.004 A 
HETATM   16  C   UNK     0     131.370 107.247 169.489  0.00  0.00     0.001 A 
HETATM   17  C   UNK     0     130.668 106.890 168.166  0.00  0.00     0.004 A 
HETATM   18  C   UNK     0     130.143 105.461 167.934  0.00  0.00     0.024 A 
ENDBRANCH   6  13
BRANCH  10  19
HETATM   19  N   UNK     0     134.833 102.478 167.195  0.00  0.00    -0.122 N 
HETATM   20  O   UNK     0     135.878 102.481 168.326  0.00  0.00    -0.532 OA
HETATM   21  O   UNK     0     135.158 103.140 165.844  0.00  0.00    -0.532 OA
ENDBRANCH  10  19
TORSDOF 2
ENDMDL
MODEL 10
REMARK VINA RESULT:      -5.3      3.038      3.806
REMARK  2 active torsions:
REMARK  status: ('A' for Active; 'I' for Inactive)
REMARK    1  A    between atoms: N_6  and  C_14 
REMARK    2  A    between atoms: C_9  and  C_10 
ROOT
HETATM    1  O   UNK     0     149.336 122.145 197.065  0.00  0.00    -0.168 OA
HETATM    2  N   UNK     0     147.745 122.261 195.002  0.00  0.00    -0.223 NA
HETATM    3  N   UNK     0     148.787 125.558 194.874  0.00  0.00    -0.241 NA
HETATM    4  C   UNK     0     147.007 124.240 193.201  0.00  0.00     0.014 A 
HETATM    5  C   UNK     0     146.976 122.816 193.788  0.00  0.00     0.059 A 
HETATM    6  C   UNK     0     147.813 125.460 193.684  0.00  0.00     0.071 A 
HETATM    7  C   UNK     0     146.124 124.621 191.917  0.00  0.00     0.075 A 
HETATM    8  C   UNK     0     146.061 121.675 193.131  0.00  0.00     0.052 A 
HETATM    9  C   UNK     0     149.196 124.460 195.873  0.00  0.00     0.146 A 
HETATM   10  C   UNK     0     145.197 123.504 191.236  0.00  0.00     0.087 A 
HETATM   11  C   UNK     0     148.732 122.993 195.930  0.00  0.00     0.232 A 
HETATM   12  C   UNK     0     145.165 122.021 191.846  0.00  0.00     0.052 A 
ENDROOT
BRANCH   6  13
HETATM   13  C   UNK     0     147.618 126.753 192.871  0.00  0.00    -0.027 A 
HETATM   14  C   UNK     0     148.509 127.034 191.646  0.00  0.00     0.024 A 
HETATM   15  C   UNK     0     148.314 128.328 190.833  0.00  0.00     0.004 A 
HETATM   16  C   UNK     0     147.230 129.340 191.246  0.00  0.00     0.001 A 
HETATM   17  C   UNK     0     146.340 129.060 192.470  0.00  0.00     0.004 A 
HETATM   18  C   UNK     0     146.534 127.767 193.283  0.00  0.00     0.024 A 
ENDBRANCH   6  13
BRANCH  10  19
HETATM   19  N   UNK     0     144.342 123.853 190.002  0.00  0.00    -0.122 N 
HETATM   20  O   UNK     0     143.000 123.136 189.768  0.00  0.00    -0.532 OA
HETATM   21  O   UNK     0     144.831 124.919 189.004  0.00  0.00    -0.532 OA
ENDBRANCH  10  19
TORSDOF 2
ENDMDL
