MODEL 1
REMARK VINA RESULT:      -7.4      0.000      0.000
REMARK  1 active torsions:
REMARK  status: ('A' for Active; 'I' for Inactive)
REMARK    1  A    between atoms: C_3  and  C_9 
ROOT
HETATM    1  C   UNK     0     145.401 123.271 191.645  0.00  0.00     0.013 A 
HETATM    2  N   UNK     0     144.314 121.184 192.552  0.00  0.00    -0.241 NA
HETATM    3  C   UNK     0     145.344 122.313 192.521  0.00  0.00     0.071 A 
HETATM    4  N   UNK     0     143.478 123.124 189.785  0.00  0.00    -0.223 NA
HETATM    5  C   UNK     0     144.563 123.662 190.389  0.00  0.00     0.059 A 
HETATM    6  C   UNK     0     142.732 121.866 190.237  0.00  0.00     0.232 A 
HETATM    7  C   UNK     0     146.603 124.152 192.035  0.00  0.00     0.062 A 
HETATM    8  C   UNK     0     143.133 120.973 191.528  0.00  0.00     0.146 A 
HETATM    9  C   UNK     0     144.936 124.906 189.560  0.00  0.00     0.051 A 
HETATM   10  O   UNK     0     141.523 121.430 189.404  0.00  0.00    -0.168 OA
HETATM   11  C   UNK     0     146.969 125.389 191.207  0.00  0.00     0.018 A 
HETATM   12  C   UNK     0     146.136 125.766 189.970  0.00  0.00     0.040 A 
HETATM   13 Cl   UNK     0     148.183 126.265 191.615  0.00  0.00    -0.091 Cl
ENDROOT
BRANCH   3  14
HETATM   14  C   UNK     0     146.408 122.317 193.626  0.00  0.00    -0.027 A 
HETATM   15  C   UNK     0     147.633 121.399 193.519  0.00  0.00     0.024 A 
HETATM   16  C   UNK     0     148.700 121.395 194.617  0.00  0.00     0.004 A 
HETATM   17  C   UNK     0     148.536 122.326 195.836  0.00  0.00     0.001 A 
HETATM   18  C   UNK     0     147.314 123.258 195.964  0.00  0.00     0.004 A 
HETATM   19  C   UNK     0     146.244 123.248 194.844  0.00  0.00     0.024 A 
ENDBRANCH   3  14
TORSDOF 1
ENDMDL
MODEL 2
REMARK VINA RESULT:      -7.2     12.474     15.116
REMARK  1 active torsions:
REMARK  status: ('A' for Active; 'I' for Inactive)
REMARK    1  A    between atoms: C_3  and  C_9 
ROOT
HETATM    1  C   UNK     0     156.015 115.247 197.450  0.00  0.00     0.013 A 
HETATM    2  N   UNK     0     157.706 113.596 198.328  0.00  0.00    -0.241 NA
HETATM    3  C   UNK     0     156.842 114.264 197.259  0.00  0.00     0.071 A 
HETATM    4  N   UNK     0     155.919 116.073 199.997  0.00  0.00    -0.223 NA
HETATM    5  C   UNK     0     155.577 116.089 198.688  0.00  0.00     0.059 A 
HETATM    6  C   UNK     0     156.927 115.123 200.648  0.00  0.00     0.232 A 
HETATM    7  C   UNK     0     155.388 115.567 196.080  0.00  0.00     0.062 A 
HETATM    8  C   UNK     0     157.753 113.974 199.858  0.00  0.00     0.146 A 
HETATM    9  C   UNK     0     154.536 117.215 198.535  0.00  0.00     0.051 A 
HETATM   10  O   UNK     0     157.167 115.278 202.154  0.00  0.00    -0.168 OA
HETATM   11  C   UNK     0     154.353 116.688 195.934  0.00  0.00     0.018 A 
HETATM   12  C   UNK     0     153.927 117.511 197.161  0.00  0.00     0.040 A 
HETATM   13 Cl   UNK     0     153.731 116.996 194.547  0.00  0.00    -0.091 Cl
ENDROOT
BRANCH   3  14
HETATM   14  C   UNK     0     156.963 113.726 195.827  0.00  0.00    -0.027 A 
HETATM   15  C   UNK     0     155.967 112.678 195.312  0.00  0.00     0.024 A 
HETATM   16  C   UNK     0     156.079 112.135 193.885  0.00  0.00     0.004 A 
HETATM   17  C   UNK     0     157.205 112.650 192.964  0.00  0.00     0.001 A 
HETATM   18  C   UNK     0     158.216 113.702 193.461  0.00  0.00     0.004 A 
HETATM   19  C   UNK     0     158.088 114.240 194.907  0.00  0.00     0.024 A 
ENDBRANCH   3  14
TORSDOF 1
ENDMDL
MODEL 3
REMARK VINA RESULT:      -7.1      3.378      4.826
REMARK  1 active torsions:
REMARK  status: ('A' for Active; 'I' for Inactive)
REMARK    1  A    between atoms: C_3  and  C_9 
ROOT
HETATM    1  C   UNK     0     145.346 124.989 189.966  0.00  0.00     0.013 A 
HETATM    2  N   UNK     0     143.277 124.924 188.526  0.00  0.00    -0.241 NA
HETATM    3  C   UNK     0     144.155 124.535 189.715  0.00  0.00     0.071 A 
HETATM    4  N   UNK     0     146.211 126.759 188.151  0.00  0.00    -0.223 NA
HETATM    5  C   UNK     0     146.304 126.003 189.269  0.00  0.00     0.059 A 
HETATM    6  C   UNK     0     145.014 126.807 187.198  0.00  0.00     0.232 A 
HETATM    7  C   UNK     0     145.813 124.304 191.264  0.00  0.00     0.062 A 
HETATM    8  C   UNK     0     143.654 125.946 187.385  0.00  0.00     0.146 A 
HETATM    9  C   UNK     0     147.689 126.307 189.872  0.00  0.00     0.051 A 
HETATM   10  O   UNK     0     145.118 127.737 185.985  0.00  0.00    -0.168 OA
HETATM   11  C   UNK     0     147.192 124.610 191.859  0.00  0.00     0.018 A 
HETATM   12  C   UNK     0     148.129 125.611 191.164  0.00  0.00     0.040 A 
HETATM   13 Cl   UNK     0     147.646 123.910 193.167  0.00  0.00    -0.091 Cl
ENDROOT
BRANCH   3  14
HETATM   14  C   UNK     0     143.578 123.514 190.704  0.00  0.00    -0.027 A 
HETATM   15  C   UNK     0     144.011 122.044 190.635  0.00  0.00     0.024 A 
HETATM   16  C   UNK     0     143.441 121.018 191.617  0.00  0.00     0.004 A 
HETATM   17  C   UNK     0     142.422 121.474 192.682  0.00  0.00     0.001 A 
HETATM   18  C   UNK     0     141.972 122.945 192.770  0.00  0.00     0.004 A 
HETATM   19  C   UNK     0     142.559 123.970 191.769  0.00  0.00     0.024 A 
ENDBRANCH   3  14
TORSDOF 1
ENDMDL
MODEL 4
REMARK VINA RESULT:      -6.9      3.573      6.586
REMARK  1 active torsions:
REMARK  status: ('A' for Active; 'I' for Inactive)
REMARK    1  A    between atoms: C_3  and  C_9 
ROOT
HETATM    1  C   UNK     0     145.442 124.044 191.331  0.00  0.00     0.013 A 
HETATM    2  N   UNK     0     146.614 126.275 191.399  0.00  0.00    -0.241 NA
HETATM    3  C   UNK     0     145.596 125.256 190.889  0.00  0.00     0.071 A 
HETATM    4  N   UNK     0     147.131 123.413 193.312  0.00  0.00    -0.223 NA
HETATM    5  C   UNK     0     146.129 123.181 192.434  0.00  0.00     0.059 A 
HETATM    6  C   UNK     0     147.917 124.720 193.451  0.00  0.00     0.232 A 
HETATM    7  C   UNK     0     144.301 123.418 190.507  0.00  0.00     0.062 A 
HETATM    8  C   UNK     0     147.665 126.045 192.553  0.00  0.00     0.146 A 
HETATM    9  C   UNK     0     145.669 121.733 192.688  0.00  0.00     0.051 A 
HETATM   10  O   UNK     0     149.017 124.768 194.516  0.00  0.00    -0.168 OA
HETATM   11  C   UNK     0     143.848 121.977 190.764  0.00  0.00     0.018 A 
HETATM   12  C   UNK     0     144.532 121.134 191.854  0.00  0.00     0.040 A 
HETATM   13 Cl   UNK     0     142.697 121.362 189.925  0.00  0.00    -0.091 Cl
ENDROOT
BRANCH   3  14
HETATM   14  C   UNK     0     144.669 125.705 189.752  0.00  0.00    -0.027 A 
HETATM   15  C   UNK     0     145.129 125.591 188.293  0.00  0.00     0.024 A 
HETATM   16  C   UNK     0     144.212 126.036 187.151  0.00  0.00     0.004 A 
HETATM   17  C   UNK     0     142.815 126.602 187.478  0.00  0.00     0.001 A 
HETATM   18  C   UNK     0     142.331 126.726 188.937  0.00  0.00     0.004 A 
HETATM   19  C   UNK     0     143.272 126.271 190.079  0.00  0.00     0.024 A 
ENDBRANCH   3  14
TORSDOF 1
ENDMDL
MODEL 5
REMARK VINA RESULT:      -6.5     39.742     41.778
REMARK  1 active torsions:
REMARK  status: ('A' for Active; 'I' for Inactive)
REMARK    1  A    between atoms: C_3  and  C_9 
ROOT
HETATM    1  C   UNK     0     153.393 117.035 151.504  0.00  0.00     0.013 A 
HETATM    2  N   UNK     0     153.312 117.188 154.020  0.00  0.00    -0.241 NA
HETATM    3  C   UNK     0     153.529 117.716 152.602  0.00  0.00     0.071 A 
HETATM    4  N   UNK     0     152.663 114.490 151.918  0.00  0.00    -0.223 NA
HETATM    5  C   UNK     0     152.999 115.563 151.166  0.00  0.00     0.059 A 
HETATM    6  C   UNK     0     152.578 114.458 153.446  0.00  0.00     0.232 A 
HETATM    7  C   UNK     0     153.719 117.996 150.346  0.00  0.00     0.062 A 
HETATM    8  C   UNK     0     152.883 115.722 154.412  0.00  0.00     0.146 A 
HETATM    9  C   UNK     0     152.940 115.090 149.701  0.00  0.00     0.051 A 
HETATM   10  O   UNK     0     152.176 113.131 154.099  0.00  0.00    -0.168 OA
HETATM   11  C   UNK     0     153.658 117.520 148.891  0.00  0.00     0.018 A 
HETATM   12  C   UNK     0     153.268 116.068 148.568  0.00  0.00     0.040 A 
HETATM   13 Cl   UNK     0     153.989 118.503 147.737  0.00  0.00    -0.091 Cl
ENDROOT
BRANCH   3  14
HETATM   14  C   UNK     0     153.946 119.186 152.460  0.00  0.00    -0.027 A 
HETATM   15  C   UNK     0     152.883 120.271 152.246  0.00  0.00     0.024 A 
HETATM   16  C   UNK     0     153.289 121.740 152.103  0.00  0.00     0.004 A 
HETATM   17  C   UNK     0     154.781 122.124 152.178  0.00  0.00     0.001 A 
HETATM   18  C   UNK     0     155.866 121.051 152.392  0.00  0.00     0.004 A 
HETATM   19  C   UNK     0     155.438 119.570 152.534  0.00  0.00     0.024 A 
ENDBRANCH   3  14
TORSDOF 1
ENDMDL
MODEL 6
REMARK VINA RESULT:      -6.5      1.559      1.991
REMARK  1 active torsions:
REMARK  status: ('A' for Active; 'I' for Inactive)
REMARK    1  A    between atoms: C_3  and  C_9 
ROOT
HETATM    1  C   UNK     0     146.938 123.981 192.376  0.00  0.00     0.013 A 
HETATM    2  N   UNK     0     145.313 122.074 192.665  0.00  0.00    -0.241 NA
HETATM    3  C   UNK     0     146.556 122.901 192.990  0.00  0.00     0.071 A 
HETATM    4  N   UNK     0     145.300 124.702 190.383  0.00  0.00    -0.223 NA
HETATM    5  C   UNK     0     146.382 124.821 191.185  0.00  0.00     0.059 A 
HETATM    6  C   UNK     0     144.246 123.595 190.458  0.00  0.00     0.232 A 
HETATM    7  C   UNK     0     148.236 124.442 193.064  0.00  0.00     0.062 A 
HETATM    8  C   UNK     0     144.264 122.377 191.526  0.00  0.00     0.146 A 
HETATM    9  C   UNK     0     147.124 126.086 190.712  0.00  0.00     0.051 A 
HETATM   10  O   UNK     0     143.095 123.651 189.447  0.00  0.00    -0.168 OA
HETATM   11  C   UNK     0     148.970 125.701 192.589  0.00  0.00     0.018 A 
HETATM   12  C   UNK     0     148.414 126.523 191.414  0.00  0.00     0.040 A 
HETATM   13 Cl   UNK     0     150.277 126.151 193.293  0.00  0.00    -0.091 Cl
ENDROOT
BRANCH   3  14
HETATM   14  C   UNK     0     147.436 122.413 194.149  0.00  0.00    -0.027 A 
HETATM   15  C   UNK     0     148.376 121.216 193.950  0.00  0.00     0.024 A 
HETATM   16  C   UNK     0     149.257 120.721 195.100  0.00  0.00     0.004 A 
HETATM   17  C   UNK     0     149.195 121.437 196.465  0.00  0.00     0.001 A 
HETATM   18  C   UNK     0     148.258 122.641 196.687  0.00  0.00     0.004 A 
HETATM   19  C   UNK     0     147.373 123.128 195.513  0.00  0.00     0.024 A 
ENDBRANCH   3  14
TORSDOF 1
ENDMDL
MODEL 7
REMARK VINA RESULT:      -6.5     40.436     42.427
REMARK  1 active torsions:
REMARK  status: ('A' for Active; 'I' for Inactive)
REMARK    1  A    between atoms: C_3  and  C_9 
ROOT
HETATM    1  C   UNK     0     153.176 116.380 151.668  0.00  0.00     0.013 A 
HETATM    2  N   UNK     0     152.718 114.156 152.766  0.00  0.00    -0.241 NA
HETATM    3  C   UNK     0     153.132 115.082 151.622  0.00  0.00     0.071 A 
HETATM    4  N   UNK     0     152.446 117.383 154.043  0.00  0.00    -0.223 NA
HETATM    5  C   UNK     0     152.868 117.451 152.759  0.00  0.00     0.059 A 
HETATM    6  C   UNK     0     152.136 116.100 154.817  0.00  0.00     0.232 A 
HETATM    7  C   UNK     0     153.650 116.853 150.281  0.00  0.00     0.062 A 
HETATM    8  C   UNK     0     152.267 114.603 154.209  0.00  0.00     0.146 A 
HETATM    9  C   UNK     0     153.037 118.950 152.447  0.00  0.00     0.051 A 
HETATM   10  O   UNK     0     151.668 116.251 156.269  0.00  0.00    -0.168 OA
HETATM   11  C   UNK     0     153.816 118.345 149.977  0.00  0.00     0.018 A 
HETATM   12  C   UNK     0     153.510 119.394 151.059  0.00  0.00     0.040 A 
HETATM   13 Cl   UNK     0     154.295 118.804 148.574  0.00  0.00    -0.091 Cl
ENDROOT
BRANCH   3  14
HETATM   14  C   UNK     0     153.535 114.419 150.299  0.00  0.00    -0.027 A 
HETATM   15  C   UNK     0     152.464 114.066 149.257  0.00  0.00     0.024 A 
HETATM   16  C   UNK     0     152.856 113.405 147.933  0.00  0.00     0.004 A 
HETATM   17  C   UNK     0     154.340 113.094 147.652  0.00  0.00     0.001 A 
HETATM   18  C   UNK     0     155.432 113.439 148.683  0.00  0.00     0.004 A 
HETATM   19  C   UNK     0     155.019 114.108 150.017  0.00  0.00     0.024 A 
ENDBRANCH   3  14
TORSDOF 1
ENDMDL
MODEL 8
REMARK VINA RESULT:      -6.3     42.261     45.106
REMARK  1 active torsions:
REMARK  status: ('A' for Active; 'I' for Inactive)
REMARK    1  A    between atoms: C_3  and  C_9 
ROOT
HETATM    1  C   UNK     0     112.846 140.843 168.275  0.00  0.00     0.013 A 
HETATM    2  N   UNK     0     114.824 142.400 168.422  0.00  0.00    -0.241 NA
HETATM    3  C   UNK     0     113.346 142.042 168.269  0.00  0.00     0.071 A 
HETATM    4  N   UNK     0     114.690 138.926 168.591  0.00  0.00    -0.223 NA
HETATM    5  C   UNK     0     113.438 139.407 168.420  0.00  0.00     0.059 A 
HETATM    6  C   UNK     0     115.966 139.764 168.695  0.00  0.00     0.232 A 
HETATM    7  C   UNK     0     111.325 141.000 168.090  0.00  0.00     0.062 A 
HETATM    8  C   UNK     0     116.014 141.382 168.614  0.00  0.00     0.146 A 
HETATM    9  C   UNK     0     112.512 138.176 168.378  0.00  0.00     0.051 A 
HETATM   10  O   UNK     0     117.287 139.012 168.889  0.00  0.00    -0.168 OA
HETATM   11  C   UNK     0     110.409 139.772 168.049  0.00  0.00     0.018 A 
HETATM   12  C   UNK     0     111.003 138.361 168.193  0.00  0.00     0.040 A 
HETATM   13 Cl   UNK     0     108.879 139.949 167.861  0.00  0.00    -0.091 Cl
ENDROOT
BRANCH   3  14
HETATM   14  C   UNK     0     112.361 143.205 168.092  0.00  0.00    -0.027 A 
HETATM   15  C   UNK     0     111.906 144.020 169.310  0.00  0.00     0.024 A 
HETATM   16  C   UNK     0     110.923 145.183 169.144  0.00  0.00     0.004 A 
HETATM   17  C   UNK     0     110.392 145.531 167.738  0.00  0.00     0.001 A 
HETATM   18  C   UNK     0     110.836 144.726 166.501  0.00  0.00     0.004 A 
HETATM   19  C   UNK     0     111.830 143.553 166.687  0.00  0.00     0.024 A 
ENDBRANCH   3  14
TORSDOF 1
ENDMDL
MODEL 9
REMARK VINA RESULT:      -6.3    101.411    102.781
REMARK  1 active torsions:
REMARK  status: ('A' for Active; 'I' for Inactive)
REMARK    1  A    between atoms: C_3  and  C_9 
ROOT
HETATM    1  C   UNK     0     117.989 174.736 107.660  0.00  0.00     0.013 A 
HETATM    2  N   UNK     0     119.060 172.499 107.204  0.00  0.00    -0.241 NA
HETATM    3  C   UNK     0     119.044 174.008 107.452  0.00  0.00     0.071 A 
HETATM    4  N   UNK     0     115.706 173.334 107.624  0.00  0.00    -0.223 NA
HETATM    5  C   UNK     0     116.457 174.453 107.743  0.00  0.00     0.059 A 
HETATM    6  C   UNK     0     116.236 171.924 107.349  0.00  0.00     0.232 A 
HETATM    7  C   UNK     0     118.484 176.182 107.855  0.00  0.00     0.062 A 
HETATM    8  C   UNK     0     117.801 171.550 107.156  0.00  0.00     0.146 A 
HETATM    9  C   UNK     0     115.466 175.601 108.015  0.00  0.00     0.051 A 
HETATM   10  O   UNK     0     115.207 170.793 107.251  0.00  0.00    -0.168 OA
HETATM   11  C   UNK     0     117.494 177.320 108.124  0.00  0.00     0.018 A 
HETATM   12  C   UNK     0     115.986 177.030 108.204  0.00  0.00     0.040 A 
HETATM   13 Cl   UNK     0     118.010 178.770 108.317  0.00  0.00    -0.091 Cl
ENDROOT
BRANCH   3  14
HETATM   14  C   UNK     0     120.398 174.729 107.455  0.00  0.00    -0.027 A 
HETATM   15  C   UNK     0     120.827 175.569 106.245  0.00  0.00     0.024 A 
HETATM   16  C   UNK     0     122.176 176.292 106.239  0.00  0.00     0.004 A 
HETATM   17  C   UNK     0     123.107 176.170 107.463  0.00  0.00     0.001 A 
HETATM   18  C   UNK     0     122.697 175.331 108.690  0.00  0.00     0.004 A 
HETATM   19  C   UNK     0     121.328 174.607 108.679  0.00  0.00     0.024 A 
ENDBRANCH   3  14
TORSDOF 1
ENDMDL
MODEL 10
REMARK VINA RESULT:      -6.3     30.157     31.564
REMARK  1 active torsions:
REMARK  status: ('A' for Active; 'I' for Inactive)
REMARK    1  A    between atoms: C_3  and  C_9 
ROOT
HETATM    1  C   UNK     0     125.595 120.545 168.275  0.00  0.00     0.013 A 
HETATM    2  N   UNK     0     125.074 119.659 170.577  0.00  0.00    -0.241 NA
HETATM    3  C   UNK     0     125.035 120.679 169.439  0.00  0.00     0.071 A 
HETATM    4  N   UNK     0     126.900 118.223 167.985  0.00  0.00    -0.223 NA
HETATM    5  C   UNK     0     126.450 119.435 167.588  0.00  0.00     0.059 A 
HETATM    6  C   UNK     0     126.651 117.578 169.351  0.00  0.00     0.232 A 
HETATM    7  C   UNK     0     125.276 121.827 167.484  0.00  0.00     0.062 A 
HETATM    8  C   UNK     0     125.799 118.259 170.549  0.00  0.00     0.146 A 
HETATM    9  C   UNK     0     126.961 119.627 166.147  0.00  0.00     0.051 A 
HETATM   10  O   UNK     0     127.255 116.191 169.593  0.00  0.00    -0.168 OA
HETATM   11  C   UNK     0     125.787 122.012 166.051  0.00  0.00     0.018 A 
HETATM   12  C   UNK     0     126.629 120.912 165.383  0.00  0.00     0.040 A 
HETATM   13 Cl   UNK     0     125.457 123.311 165.269  0.00  0.00    -0.091 Cl
ENDROOT
BRANCH   3  14
HETATM   14  C   UNK     0     124.265 121.981 169.695  0.00  0.00    -0.027 A 
HETATM   15  C   UNK     0     122.730 121.985 169.670  0.00  0.00     0.024 A 
HETATM   16  C   UNK     0     121.952 123.279 169.924  0.00  0.00     0.004 A 
HETATM   17  C   UNK     0     122.725 124.584 170.205  0.00  0.00     0.001 A 
HETATM   18  C   UNK     0     124.266 124.603 170.235  0.00  0.00     0.004 A 
HETATM   19  C   UNK     0     125.036 123.285 169.976  0.00  0.00     0.024 A 
ENDBRANCH   3  14
TORSDOF 1
ENDMDL
