MODEL 1
REMARK VINA RESULT:      -7.4      0.000      0.000
REMARK  0 active torsions:
REMARK  status: ('A' for Active; 'I' for Inactive)
ROOT
HETATM    1  O   UNK     0     172.002 105.320 189.883  0.00  0.00    -0.304 OA
HETATM    2  O   UNK     0     171.639 103.609 184.752  0.00  0.00    -0.152 OA
HETATM    3  N   UNK     0     170.192 105.322 186.333  0.00  0.00     0.418 N 
HETATM    4  N   UNK     0     172.170 104.221 187.374  0.00  0.00     0.440 N 
HETATM    5  C   UNK     0     170.294 105.808 187.790  0.00  0.00     0.326 A 
HETATM    6  C   UNK     0     169.043 106.681 187.587  0.00  0.00    -0.009 A 
HETATM    7  C   UNK     0     170.006 106.540 189.114  0.00  0.00     0.031 A 
HETATM    8  C   UNK     0     171.517 105.128 188.433  0.00  0.00     0.424 A 
HETATM    9  C   UNK     0     171.350 104.341 186.075  0.00  0.00     0.663 A 
HETATM   10  C   UNK     0     168.150 107.663 188.369  0.00  0.00    -0.032 A 
HETATM   11  C   UNK     0     170.920 106.317 190.333  0.00  0.00     0.072 A 
HETATM   12  C   UNK     0     168.724 106.355 186.117  0.00  0.00     0.024 A 
HETATM   13  C   UNK     0     168.802 107.496 189.219  0.00  0.00    -0.027 A 
HETATM   14  C   UNK     0     170.631 107.050 191.656  0.00  0.00     0.051 A 
HETATM   15  C   UNK     0     166.938 108.318 187.680  0.00  0.00     0.025 A 
HETATM   16  C   UNK     0     167.512 107.009 185.428  0.00  0.00     0.005 A 
HETATM   17  C   UNK     0     168.514 108.228 190.542  0.00  0.00     0.026 A 
HETATM   18  C   UNK     0     169.427 108.005 191.761  0.00  0.00     0.011 A 
HETATM   19  C   UNK     0     166.619 107.991 186.209  0.00  0.00     0.005 A 
ENDROOT
TORSDOF 0
ENDMDL
MODEL 2
REMARK VINA RESULT:      -7.2     18.451     20.452
REMARK  0 active torsions:
REMARK  status: ('A' for Active; 'I' for Inactive)
ROOT
HETATM    1  O   UNK     0     156.126 115.469 201.098  0.00  0.00    -0.304 OA
HETATM    2  O   UNK     0     152.248 119.119 200.083  0.00  0.00    -0.152 OA
HETATM    3  N   UNK     0     153.862 117.523 198.542  0.00  0.00     0.418 N 
HETATM    4  N   UNK     0     154.137 117.358 201.013  0.00  0.00     0.440 N 
HETATM    5  C   UNK     0     154.964 116.487 198.830  0.00  0.00     0.326 A 
HETATM    6  C   UNK     0     155.143 116.257 197.318  0.00  0.00    -0.009 A 
HETATM    7  C   UNK     0     156.067 115.429 198.637  0.00  0.00     0.031 A 
HETATM    8  C   UNK     0     155.133 116.385 200.357  0.00  0.00     0.424 A 
HETATM    9  C   UNK     0     153.351 118.062 199.890  0.00  0.00     0.663 A 
HETATM   10  C   UNK     0     155.989 115.415 196.345  0.00  0.00    -0.032 A 
HETATM   11  C   UNK     0     156.765 114.813 199.863  0.00  0.00     0.072 A 
HETATM   12  C   UNK     0     154.090 117.238 196.771  0.00  0.00     0.024 A 
HETATM   13  C   UNK     0     156.472 114.989 197.218  0.00  0.00    -0.027 A 
HETATM   14  C   UNK     0     157.868 113.756 199.669  0.00  0.00     0.051 A 
HETATM   15  C   UNK     0     155.781 115.554 194.825  0.00  0.00     0.025 A 
HETATM   16  C   UNK     0     153.882 117.377 195.251  0.00  0.00     0.005 A 
HETATM   17  C   UNK     0     157.575 113.932 197.025  0.00  0.00     0.026 A 
HETATM   18  C   UNK     0     158.273 113.315 198.250  0.00  0.00     0.011 A 
HETATM   19  C   UNK     0     154.727 116.535 194.278  0.00  0.00     0.005 A 
ENDROOT
TORSDOF 0
ENDMDL
MODEL 3
REMARK VINA RESULT:      -7.0     42.164     44.485
REMARK  0 active torsions:
REMARK  status: ('A' for Active; 'I' for Inactive)
ROOT
HETATM    1  O   UNK     0     130.546 100.863 166.179  0.00  0.00    -0.304 OA
HETATM    2  O   UNK     0     135.393 103.284 166.014  0.00  0.00    -0.152 OA
HETATM    3  N   UNK     0     132.866 104.049 166.762  0.00  0.00     0.418 N 
HETATM    4  N   UNK     0     133.145 101.711 165.944  0.00  0.00     0.440 N 
HETATM    5  C   UNK     0     131.489 103.361 166.808  0.00  0.00     0.326 A 
HETATM    6  C   UNK     0     130.861 104.657 167.355  0.00  0.00    -0.009 A 
HETATM    7  C   UNK     0     129.985 103.107 167.022  0.00  0.00     0.031 A 
HETATM    8  C   UNK     0     131.662 101.917 166.303  0.00  0.00     0.424 A 
HETATM    9  C   UNK     0     133.889 103.030 166.228  0.00  0.00     0.663 A 
HETATM   10  C   UNK     0     129.495 105.207 167.804  0.00  0.00    -0.032 A 
HETATM   11  C   UNK     0     129.383 101.729 166.691  0.00  0.00     0.072 A 
HETATM   12  C   UNK     0     132.108 105.559 167.404  0.00  0.00     0.024 A 
HETATM   13  C   UNK     0     129.084 104.231 167.566  0.00  0.00    -0.027 A 
HETATM   14  C   UNK     0     127.879 101.476 166.904  0.00  0.00     0.051 A 
HETATM   15  C   UNK     0     129.375 106.659 168.301  0.00  0.00     0.025 A 
HETATM   16  C   UNK     0     131.988 107.011 167.901  0.00  0.00     0.005 A 
HETATM   17  C   UNK     0     127.581 103.977 167.779  0.00  0.00     0.026 A 
HETATM   18  C   UNK     0     126.978 102.600 167.449  0.00  0.00     0.011 A 
HETATM   19  C   UNK     0     130.622 107.562 168.350  0.00  0.00     0.005 A 
ENDROOT
TORSDOF 0
ENDMDL
MODEL 4
REMARK VINA RESULT:      -6.9     28.718     29.985
REMARK  0 active torsions:
REMARK  status: ('A' for Active; 'I' for Inactive)
ROOT
HETATM    1  O   UNK     0     148.123 126.488 192.477  0.00  0.00    -0.304 OA
HETATM    2  O   UNK     0     144.803 127.136 188.240  0.00  0.00    -0.152 OA
HETATM    3  N   UNK     0     145.226 125.153 190.088  0.00  0.00     0.418 N 
HETATM    4  N   UNK     0     146.632 127.200 190.285  0.00  0.00     0.440 N 
HETATM    5  C   UNK     0     146.169 124.968 191.291  0.00  0.00     0.326 A 
HETATM    6  C   UNK     0     145.562 123.578 191.554  0.00  0.00    -0.009 A 
HETATM    7  C   UNK     0     146.878 124.363 192.517  0.00  0.00     0.031 A 
HETATM    8  C   UNK     0     147.038 126.234 191.413  0.00  0.00     0.424 A 
HETATM    9  C   UNK     0     145.512 126.532 189.466  0.00  0.00     0.663 A 
HETATM   10  C   UNK     0     145.703 122.394 192.529  0.00  0.00    -0.032 A 
HETATM   11  C   UNK     0     147.986 125.157 193.236  0.00  0.00     0.072 A 
HETATM   12  C   UNK     0     144.528 123.517 190.415  0.00  0.00     0.024 A 
HETATM   13  C   UNK     0     146.481 122.965 193.025  0.00  0.00    -0.027 A 
HETATM   14  C   UNK     0     148.695 124.552 194.461  0.00  0.00     0.051 A 
HETATM   15  C   UNK     0     144.810 121.150 192.365  0.00  0.00     0.025 A 
HETATM   16  C   UNK     0     143.635 122.274 190.250  0.00  0.00     0.005 A 
HETATM   17  C   UNK     0     147.190 122.360 194.250  0.00  0.00     0.026 A 
HETATM   18  C   UNK     0     148.297 123.153 194.969  0.00  0.00     0.011 A 
HETATM   19  C   UNK     0     143.775 121.090 191.225  0.00  0.00     0.005 A 
ENDROOT
TORSDOF 0
ENDMDL
MODEL 5
REMARK VINA RESULT:      -6.9    102.361    105.491
REMARK  0 active torsions:
REMARK  status: ('A' for Active; 'I' for Inactive)
ROOT
HETATM    1  O   UNK     0     103.469 133.381 112.691  0.00  0.00    -0.304 OA
HETATM    2  O   UNK     0     103.756 128.385 114.775  0.00  0.00    -0.152 OA
HETATM    3  N   UNK     0     102.439 129.532 112.659  0.00  0.00     0.418 N 
HETATM    4  N   UNK     0     103.882 131.025 114.036  0.00  0.00     0.440 N 
HETATM    5  C   UNK     0     102.358 130.951 112.066  0.00  0.00     0.326 A 
HETATM    6  C   UNK     0     101.394 130.441 110.979  0.00  0.00    -0.009 A 
HETATM    7  C   UNK     0     101.983 132.144 111.167  0.00  0.00     0.031 A 
HETATM    8  C   UNK     0     103.249 131.874 112.918  0.00  0.00     0.424 A 
HETATM    9  C   UNK     0     103.381 129.578 113.876  0.00  0.00     0.663 A 
HETATM   10  C   UNK     0     100.604 130.964 109.764  0.00  0.00    -0.032 A 
HETATM   11  C   UNK     0     102.567 133.539 111.455  0.00  0.00     0.072 A 
HETATM   12  C   UNK     0     101.307 128.956 111.372  0.00  0.00     0.024 A 
HETATM   13  C   UNK     0     101.023 131.940 109.980  0.00  0.00    -0.027 A 
HETATM   14  C   UNK     0     102.191 134.731 110.555  0.00  0.00     0.051 A 
HETATM   15  C   UNK     0      99.726 130.000 108.945  0.00  0.00     0.025 A 
HETATM   16  C   UNK     0     100.429 127.992 110.553  0.00  0.00     0.005 A 
HETATM   17  C   UNK     0     100.648 133.133 109.081  0.00  0.00     0.026 A 
HETATM   18  C   UNK     0     101.232 134.528 109.368  0.00  0.00     0.011 A 
HETATM   19  C   UNK     0      99.639 128.514 109.339  0.00  0.00     0.005 A 
ENDROOT
TORSDOF 0
ENDMDL
MODEL 6
REMARK VINA RESULT:      -6.8     86.547     88.767
REMARK  0 active torsions:
REMARK  status: ('A' for Active; 'I' for Inactive)
ROOT
HETATM    1  O   UNK     0     164.510 145.465 110.491  0.00  0.00    -0.304 OA
HETATM    2  O   UNK     0     168.080 148.412 107.669  0.00  0.00    -0.152 OA
HETATM    3  N   UNK     0     165.773 148.959 109.050  0.00  0.00     0.418 N 
HETATM    4  N   UNK     0     166.523 146.583 108.998  0.00  0.00     0.440 N 
HETATM    5  C   UNK     0     164.759 148.122 109.852  0.00  0.00     0.326 A 
HETATM    6  C   UNK     0     163.942 149.394 110.146  0.00  0.00    -0.009 A 
HETATM    7  C   UNK     0     163.542 147.719 110.705  0.00  0.00     0.031 A 
HETATM    8  C   UNK     0     165.223 146.654 109.819  0.00  0.00     0.424 A 
HETATM    9  C   UNK     0     166.863 148.008 108.523  0.00  0.00     0.663 A 
HETATM   10  C   UNK     0     162.664 149.830 110.887  0.00  0.00    -0.032 A 
HETATM   11  C   UNK     0     163.335 146.245 111.104  0.00  0.00     0.072 A 
HETATM   12  C   UNK     0     164.799 150.439 109.408  0.00  0.00     0.024 A 
HETATM   13  C   UNK     0     162.532 148.789 111.160  0.00  0.00    -0.027 A 
HETATM   14  C   UNK     0     162.118 145.843 111.957  0.00  0.00     0.051 A 
HETATM   15  C   UNK     0     162.243 151.311 110.890  0.00  0.00     0.025 A 
HETATM   16  C   UNK     0     164.378 151.920 109.411  0.00  0.00     0.005 A 
HETATM   17  C   UNK     0     161.315 148.385 112.013  0.00  0.00     0.026 A 
HETATM   18  C   UNK     0     161.108 146.913 112.412  0.00  0.00     0.011 A 
HETATM   19  C   UNK     0     163.100 152.357 110.151  0.00  0.00     0.005 A 
ENDROOT
TORSDOF 0
ENDMDL
MODEL 7
REMARK VINA RESULT:      -6.8     47.940     50.450
REMARK  0 active torsions:
REMARK  status: ('A' for Active; 'I' for Inactive)
ROOT
HETATM    1  O   UNK     0     133.453  93.264 157.010  0.00  0.00    -0.304 OA
HETATM    2  O   UNK     0     133.752  98.346 158.874  0.00  0.00    -0.152 OA
HETATM    3  N   UNK     0     133.661  97.194 156.386  0.00  0.00     0.418 N 
HETATM    4  N   UNK     0     133.599  95.657 158.346  0.00  0.00     0.440 N 
HETATM    5  C   UNK     0     133.576  95.751 155.855  0.00  0.00     0.326 A 
HETATM    6  C   UNK     0     133.589  96.281 154.410  0.00  0.00    -0.009 A 
HETATM    7  C   UNK     0     133.500  94.542 154.905  0.00  0.00     0.031 A 
HETATM    8  C   UNK     0     133.538  94.801 157.067  0.00  0.00     0.424 A 
HETATM    9  C   UNK     0     133.675  97.136 157.924  0.00  0.00     0.663 A 
HETATM   10  C   UNK     0     133.544  95.759 152.962  0.00  0.00    -0.032 A 
HETATM   11  C   UNK     0     133.428  93.114 155.479  0.00  0.00     0.072 A 
HETATM   12  C   UNK     0     133.675  97.794 154.680  0.00  0.00     0.024 A 
HETATM   13  C   UNK     0     133.495  94.760 153.381  0.00  0.00    -0.027 A 
HETATM   14  C   UNK     0     133.352  91.906 154.528  0.00  0.00     0.051 A 
HETATM   15  C   UNK     0     133.585  96.751 151.784  0.00  0.00     0.025 A 
HETATM   16  C   UNK     0     133.716  98.786 153.503  0.00  0.00     0.005 A 
HETATM   17  C   UNK     0     133.418  93.551 152.430  0.00  0.00     0.026 A 
HETATM   18  C   UNK     0     133.346  92.124 153.004  0.00  0.00     0.011 A 
HETATM   19  C   UNK     0     133.671  98.265 152.055  0.00  0.00     0.005 A 
ENDROOT
TORSDOF 0
ENDMDL
MODEL 8
REMARK VINA RESULT:      -6.7     87.056     87.997
REMARK  0 active torsions:
REMARK  status: ('A' for Active; 'I' for Inactive)
ROOT
HETATM    1  O   UNK     0     142.096 150.613 116.636  0.00  0.00    -0.304 OA
HETATM    2  O   UNK     0     140.458 145.446 116.542  0.00  0.00    -0.152 OA
HETATM    3  N   UNK     0     142.712 146.783 115.727  0.00  0.00     0.418 N 
HETATM    4  N   UNK     0     140.908 148.143 116.777  0.00  0.00     0.440 N 
HETATM    5  C   UNK     0     143.177 148.250 115.754  0.00  0.00     0.326 A 
HETATM    6  C   UNK     0     144.501 147.842 115.080  0.00  0.00    -0.009 A 
HETATM    7  C   UNK     0     144.029 149.520 115.571  0.00  0.00     0.031 A 
HETATM    8  C   UNK     0     142.062 149.091 116.403  0.00  0.00     0.424 A 
HETATM    9  C   UNK     0     141.309 146.717 116.359  0.00  0.00     0.663 A 
HETATM   10  C   UNK     0     145.814 148.474 114.581  0.00  0.00    -0.032 A 
HETATM   11  C   UNK     0     143.489 150.884 116.042  0.00  0.00     0.072 A 
HETATM   12  C   UNK     0     144.272 146.326 114.937  0.00  0.00     0.024 A 
HETATM   13  C   UNK     0     145.420 149.427 114.918  0.00  0.00    -0.027 A 
HETATM   14  C   UNK     0     144.341 152.153 115.859  0.00  0.00     0.051 A 
HETATM   15  C   UNK     0     146.898 147.589 113.939  0.00  0.00     0.025 A 
HETATM   16  C   UNK     0     145.357 145.442 114.294  0.00  0.00     0.005 A 
HETATM   17  C   UNK     0     146.272 150.697 114.735  0.00  0.00     0.026 A 
HETATM   18  C   UNK     0     145.733 152.060 115.206  0.00  0.00     0.011 A 
HETATM   19  C   UNK     0     146.670 146.072 113.796  0.00  0.00     0.005 A 
ENDROOT
TORSDOF 0
ENDMDL
MODEL 9
REMARK VINA RESULT:      -6.6     66.451     69.279
REMARK  0 active torsions:
REMARK  status: ('A' for Active; 'I' for Inactive)
ROOT
HETATM    1  O   UNK     0     109.949 140.754 167.987  0.00  0.00    -0.304 OA
HETATM    2  O   UNK     0     112.351 135.898 168.179  0.00  0.00    -0.152 OA
HETATM    3  N   UNK     0     113.216 138.498 168.324  0.00  0.00     0.418 N 
HETATM    4  N   UNK     0     110.768 138.135 168.035  0.00  0.00     0.440 N 
HETATM    5  C   UNK     0     112.534 139.877 168.270  0.00  0.00     0.326 A 
HETATM    6  C   UNK     0     113.904 140.560 168.440  0.00  0.00    -0.009 A 
HETATM    7  C   UNK     0     112.308 141.401 168.270  0.00  0.00     0.031 A 
HETATM    8  C   UNK     0     111.021 139.653 168.091  0.00  0.00     0.424 A 
HETATM    9  C   UNK     0     112.125 137.421 168.180  0.00  0.00     0.663 A 
HETATM   10  C   UNK     0     114.514 141.971 168.535  0.00  0.00    -0.032 A 
HETATM   11  C   UNK     0     110.885 141.968 168.116  0.00  0.00     0.072 A 
HETATM   12  C   UNK     0     114.813 139.321 168.523  0.00  0.00     0.024 A 
HETATM   13  C   UNK     0     113.506 142.356 168.425  0.00  0.00    -0.027 A 
HETATM   14  C   UNK     0     110.660 143.492 168.117  0.00  0.00     0.051 A 
HETATM   15  C   UNK     0     116.034 142.142 168.713  0.00  0.00     0.025 A 
HETATM   16  C   UNK     0     116.333 139.492 168.702  0.00  0.00     0.005 A 
HETATM   17  C   UNK     0     113.280 143.880 168.426  0.00  0.00     0.026 A 
HETATM   18  C   UNK     0     111.858 144.447 168.272  0.00  0.00     0.011 A 
HETATM   19  C   UNK     0     116.944 140.902 168.797  0.00  0.00     0.005 A 
ENDROOT
TORSDOF 0
ENDMDL
MODEL 10
REMARK VINA RESULT:      -6.5     23.094     25.438
REMARK  0 active torsions:
REMARK  status: ('A' for Active; 'I' for Inactive)
ROOT
HETATM    1  O   UNK     0     150.550 100.477 178.433  0.00  0.00    -0.304 OA
HETATM    2  O   UNK     0     146.326 102.540 175.734  0.00  0.00    -0.152 OA
HETATM    3  N   UNK     0     147.242 100.008 176.263  0.00  0.00     0.418 N 
HETATM    4  N   UNK     0     148.571 101.906 177.180  0.00  0.00     0.440 N 
HETATM    5  C   UNK     0     148.442  99.422 177.030  0.00  0.00     0.326 A 
HETATM    6  C   UNK     0     147.968  97.999 176.683  0.00  0.00    -0.009 A 
HETATM    7  C   UNK     0     149.437  98.425 177.652  0.00  0.00     0.031 A 
HETATM    8  C   UNK     0     149.263 100.595 177.596  0.00  0.00     0.424 A 
HETATM    9  C   UNK     0     147.321 101.543 176.356  0.00  0.00     0.663 A 
HETATM   10  C   UNK     0     148.376  96.531 176.910  0.00  0.00    -0.032 A 
HETATM   11  C   UNK     0     150.645  98.942 178.454  0.00  0.00     0.072 A 
HETATM   12  C   UNK     0     146.704  98.328 175.867  0.00  0.00     0.024 A 
HETATM   13  C   UNK     0     149.223  96.910 177.472  0.00  0.00    -0.027 A 
HETATM   14  C   UNK     0     151.640  97.944 179.076  0.00  0.00     0.051 A 
HETATM   15  C   UNK     0     147.521  95.394 176.322  0.00  0.00     0.025 A 
HETATM   16  C   UNK     0     145.849  97.191 175.279  0.00  0.00     0.005 A 
HETATM   17  C   UNK     0     150.218  95.913 178.094  0.00  0.00     0.026 A 
HETATM   18  C   UNK     0     151.426  96.430 178.896  0.00  0.00     0.011 A 
HETATM   19  C   UNK     0     146.257  95.724 175.506  0.00  0.00     0.005 A 
ENDROOT
TORSDOF 0
ENDMDL
