MODEL 1
REMARK VINA RESULT:     -10.5      0.000      0.000
REMARK  3 active torsions:
REMARK  status: ('A' for Active; 'I' for Inactive)
REMARK    1  A    between atoms: C_16  and  C_21 
REMARK    2  A    between atoms: C_24  and  O_62 
REMARK    3  A    between atoms: C_34  and  O_35 
ROOT
HETATM    1  C   UNK     0     141.897 130.981 124.252  0.00  0.00     0.018 A 
HETATM    2  C   UNK     0     143.386 130.675 124.505  0.00  0.00     0.166 A 
HETATM    3  C   UNK     0     140.825 129.937 124.614  0.00  0.00     0.004 A 
HETATM    4  N   UNK     0     143.801 129.325 125.119  0.00  0.00    -0.347 N 
HETATM    5  C   UNK     0     141.240 128.588 125.228  0.00  0.00     0.024 A 
HETATM    6  C   UNK     0     142.728 128.282 125.481  0.00  0.00     0.099 A 
HETATM    7  C   UNK     0     144.458 131.719 124.142  0.00  0.00     0.281 C 
HETATM    8  O   UNK     0     145.946 131.414 124.395  0.00  0.00    -0.189 OA
HETATM    9  O   UNK     0     146.363 130.063 125.009  0.00  0.00    -0.196 OA
HETATM   10  C   UNK     0     145.289 129.020 125.371  0.00  0.00     0.265 A 
HETATM   11  C   UNK     0     145.705 127.670 125.985  0.00  0.00     0.231 A 
HETATM   12  O   UNK     0     144.633 126.626 126.347  0.00  0.00    -0.216 OA
HETATM   13  C   UNK     0     145.116 134.114 123.166  0.00  0.00     0.175 A 
HETATM   14  C   UNK     0     146.604 133.808 123.418  0.00  0.00     0.075 A 
HETATM   15  O   UNK     0     144.043 133.069 123.528  0.00  0.00    -0.336 OA
HETATM   16  C   UNK     0     145.773 136.507 122.190  0.00  0.00     0.065 A 
HETATM   17  O   UNK     0     147.261 136.201 122.442  0.00  0.00    -0.317 OA
HETATM   18  C   UNK     0     144.700 135.463 122.552  0.00  0.00    -0.008 A 
HETATM   19  C   UNK     0     147.678 134.851 123.057  0.00  0.00     0.072 A 
HETATM   20  C   UNK     0     143.213 135.770 122.299  0.00  0.00     0.030 C 
HETATM   21  O   UNK     0     148.266 128.408 125.876  0.00  0.00    -0.365 OA
HETATM   22  C   UNK     0     147.193 127.364 126.237  0.00  0.00     0.149 A 
HETATM   23  C   UNK     0     149.753 128.102 126.128  0.00  0.00     0.151 A 
HETATM   24  C   UNK     0     150.169 126.753 126.742  0.00  0.00     0.021 A 
HETATM   25  C   UNK     0     147.608 126.014 126.852  0.00  0.00     0.030 A 
HETATM   26  C   UNK     0     149.096 125.709 127.104  0.00  0.00     0.004 A 
HETATM   27  C   UNK     0     150.826 129.146 125.766  0.00  0.00     0.071 C 
HETATM   28  C   UNK     0     152.315 128.840 126.018  0.00  0.00     0.066 C 
HETATM   29  C   UNK     0     152.973 131.234 125.042  0.00  0.00     0.028 C 
HETATM   30  C   UNK     0     153.388 129.884 125.656  0.00  0.00    -0.025 C 
HETATM   31  C   UNK     0     154.876 129.579 125.908  0.00  0.00     0.028 C 
HETATM   32  C   UNK     0     146.535 124.971 127.213  0.00  0.00     0.003 C 
HETATM   33  C   UNK     0     149.166 134.545 123.309  0.00  0.00    -0.021 C 
HETATM   34  C   UNK     0     149.581 133.196 123.923  0.00  0.00     0.028 C 
HETATM   35  C   UNK     0     150.239 135.589 122.947  0.00  0.00     0.048 C 
HETATM   36  C   UNK     0     151.727 135.284 123.199  0.00  0.00    -0.012 C 
HETATM   37  C   UNK     0     152.142 133.934 123.814  0.00  0.00     0.029 C 
HETATM   38  C   UNK     0     152.799 136.328 122.837  0.00  0.00     0.148 C 
HETATM   39  C   UNK     0     154.288 136.022 123.089  0.00  0.00     0.144 A 
HETATM   40  O   UNK     0     154.703 134.672 123.704  0.00  0.00    -0.322 OA
HETATM   41  O   UNK     0     152.384 137.678 122.223  0.00  0.00    -0.189 OA
HETATM   42  C   UNK     0     155.360 137.066 122.727  0.00  0.00     0.151 A 
HETATM   43  C   UNK     0     155.982 130.605 125.557  0.00  0.00     0.030 C 
HETATM   44  C   UNK     0     157.710 130.249 125.850  0.00  0.00    -0.026 C 
HETATM   45  C   UNK     0     156.848 136.760 122.980  0.00  0.00     0.004 A 
HETATM   46  C   UNK     0     157.225 135.377 123.605  0.00  0.00     0.002 A 
HETATM   47  C   UNK     0     156.191 134.366 123.956  0.00  0.00     0.175 A 
HETATM   48  O   UNK     0     154.945 138.415 122.113  0.00  0.00    -0.188 OA
HETATM   49  C   UNK     0     158.681 131.218 125.512  0.00  0.00    -0.005 C 
HETATM   50  C   UNK     0     158.116 132.600 124.872  0.00  0.00    -0.005 C 
HETATM   51  C   UNK     0     158.534 134.123 124.251  0.00  0.00    -0.024 C 
HETATM   52  C   UNK     0     157.874 137.822 122.606  0.00  0.00     0.033 C 
HETATM   53  O   UNK     0     146.758 128.629 125.658  0.00  0.00     0.000 OA
HETATM   54  C   UNK     0     160.023 134.517 124.202  0.00  0.00     0.031 C 
ENDROOT
BRANCH  16  55
HETATM   55  C   UNK     0     145.358 137.857 121.576  0.00  0.00     0.072 A 
HETATM   56  C   UNK     0     144.325 137.898 120.435  0.00  0.00     0.007 A 
HETATM   57  C   UNK     0     143.909 139.248 119.820  0.00  0.00     0.056 A 
HETATM   58  C   UNK     0     144.527 140.557 120.347  0.00  0.00     0.127 A 
HETATM   59  C   UNK     0     145.561 140.516 121.488  0.00  0.00     0.093 A 
HETATM   60  O   UNK     0     144.112 141.906 119.733  0.00  0.00    -0.193 OA
HETATM   61  C   UNK     0     145.976 139.166 122.102  0.00  0.00     0.053 A 
BRANCH  59  62
HETATM   62  O   UNK     0     146.179 141.824 122.015  0.00  0.00    -0.331 OA
HETATM   63  C   UNK     0     147.602 141.820 122.604  0.00  0.00     0.181 C 
ENDBRANCH  59  62
ENDBRANCH  16  55
BRANCH  28  64
HETATM   64  O   UNK     0     152.730 127.490 126.633  0.00  0.00    -0.333 OA
HETATM   65  C   UNK     0     153.410 126.423 125.756  0.00  0.00     0.181 C 
ENDBRANCH  28  64
TORSDOF 3
ENDMDL
MODEL 2
REMARK VINA RESULT:     -10.4     40.945     48.518
REMARK  3 active torsions:
REMARK  status: ('A' for Active; 'I' for Inactive)
REMARK    1  A    between atoms: C_16  and  C_21 
REMARK    2  A    between atoms: C_24  and  O_62 
REMARK    3  A    between atoms: C_34  and  O_35 
ROOT
HETATM    1  C   UNK     0     144.532  87.379 145.264  0.00  0.00     0.018 A 
HETATM    2  C   UNK     0     143.249  87.851 145.973  0.00  0.00     0.166 A 
HETATM    3  C   UNK     0     144.832  85.873 145.138  0.00  0.00     0.004 A 
HETATM    4  N   UNK     0     142.267  86.818 146.557  0.00  0.00    -0.347 N 
HETATM    5  C   UNK     0     143.850  84.841 145.722  0.00  0.00     0.024 A 
HETATM    6  C   UNK     0     142.568  85.314 146.431  0.00  0.00     0.099 A 
HETATM    7  C   UNK     0     142.948  89.357 146.098  0.00  0.00     0.281 C 
HETATM    8  O   UNK     0     141.666  89.829 146.808  0.00  0.00    -0.189 OA
HETATM    9  O   UNK     0     140.683  88.796 147.392  0.00  0.00    -0.196 OA
HETATM   10  C   UNK     0     140.984  87.292 147.266  0.00  0.00     0.265 A 
HETATM   11  C   UNK     0     140.001  86.259 147.850  0.00  0.00     0.231 A 
HETATM   12  O   UNK     0     140.302  84.753 147.724  0.00  0.00    -0.216 OA
HETATM   13  C   UNK     0     143.630  91.895 145.640  0.00  0.00     0.175 A 
HETATM   14  C   UNK     0     142.347  92.367 146.349  0.00  0.00     0.075 A 
HETATM   15  O   UNK     0     143.931  90.390 145.515  0.00  0.00    -0.336 OA
HETATM   16  C   UNK     0     144.311  94.433 145.182  0.00  0.00     0.065 A 
HETATM   17  O   UNK     0     143.029  94.905 145.891  0.00  0.00    -0.317 OA
HETATM   18  C   UNK     0     144.612  92.927 145.057  0.00  0.00    -0.008 A 
HETATM   19  C   UNK     0     142.046  93.872 146.475  0.00  0.00     0.072 A 
HETATM   20  C   UNK     0     145.895  92.456 144.347  0.00  0.00     0.030 C 
HETATM   21  O   UNK     0     138.418  88.236 148.685  0.00  0.00    -0.365 OA
HETATM   22  C   UNK     0     138.720  86.731 148.559  0.00  0.00     0.149 A 
HETATM   23  C   UNK     0     137.136  88.708 149.393  0.00  0.00     0.151 A 
HETATM   24  C   UNK     0     136.154  87.676 149.977  0.00  0.00     0.021 A 
HETATM   25  C   UNK     0     137.737  85.698 149.142  0.00  0.00     0.030 A 
HETATM   26  C   UNK     0     136.455  86.170 149.852  0.00  0.00     0.004 A 
HETATM   27  C   UNK     0     136.835  90.213 149.519  0.00  0.00     0.071 C 
HETATM   28  C   UNK     0     135.552  90.686 150.229  0.00  0.00     0.066 C 
HETATM   29  C   UNK     0     136.233  93.225 149.770  0.00  0.00     0.028 C 
HETATM   30  C   UNK     0     135.251  92.192 150.354  0.00  0.00    -0.025 C 
HETATM   31  C   UNK     0     133.968  92.664 151.063  0.00  0.00     0.028 C 
HETATM   32  C   UNK     0     138.038  84.194 149.017  0.00  0.00     0.003 C 
HETATM   33  C   UNK     0     140.763  94.345 147.185  0.00  0.00    -0.021 C 
HETATM   34  C   UNK     0     139.781  93.313 147.768  0.00  0.00     0.028 C 
HETATM   35  C   UNK     0     140.462  95.850 147.310  0.00  0.00     0.048 C 
HETATM   36  C   UNK     0     139.180  96.323 148.019  0.00  0.00    -0.012 C 
HETATM   37  C   UNK     0     138.197  95.290 148.603  0.00  0.00     0.029 C 
HETATM   38  C   UNK     0     138.879  97.828 148.145  0.00  0.00     0.148 C 
HETATM   39  C   UNK     0     137.596  98.301 148.854  0.00  0.00     0.144 A 
HETATM   40  O   UNK     0     136.614  97.268 149.438  0.00  0.00    -0.322 OA
HETATM   41  O   UNK     0     139.861  98.861 147.561  0.00  0.00    -0.189 OA
HETATM   42  C   UNK     0     137.296  99.806 148.979  0.00  0.00     0.151 A 
HETATM   43  C   UNK     0     133.634  94.169 151.208  0.00  0.00     0.030 C 
HETATM   44  C   UNK     0     132.144  94.718 152.032  0.00  0.00    -0.026 C 
HETATM   45  C   UNK     0     136.013 100.278 149.689  0.00  0.00     0.004 A 
HETATM   46  C   UNK     0     135.044  99.195 150.267  0.00  0.00     0.002 A 
HETATM   47  C   UNK     0     135.331  97.740 150.147  0.00  0.00     0.175 A 
HETATM   48  O   UNK     0     138.278 100.838 148.396  0.00  0.00    -0.188 OA
HETATM   49  C   UNK     0     131.884  96.102 152.138  0.00  0.00    -0.005 C 
HETATM   50  C   UNK     0     132.995  97.089 151.483  0.00  0.00    -0.005 C 
HETATM   51  C   UNK     0     133.429  98.703 151.191  0.00  0.00    -0.024 C 
HETATM   52  C   UNK     0     135.757 101.776 149.789  0.00  0.00     0.033 C 
HETATM   53  O   UNK     0     139.674  87.676 147.993  0.00  0.00     0.000 OA
HETATM   54  C   UNK     0     132.492  99.821 151.687  0.00  0.00     0.031 C 
ENDROOT
BRANCH  16  55
HETATM   55  C   UNK     0     145.294  95.466 144.598  0.00  0.00     0.072 A 
HETATM   56  C   UNK     0     144.955  96.192 143.284  0.00  0.00     0.007 A 
HETATM   57  C   UNK     0     145.937  97.225 142.700  0.00  0.00     0.056 A 
HETATM   58  C   UNK     0     147.258  97.531 143.431  0.00  0.00     0.127 A 
HETATM   59  C   UNK     0     147.596  96.805 144.745  0.00  0.00     0.093 A 
HETATM   60  O   UNK     0     148.239  98.564 142.847  0.00  0.00    -0.193 OA
HETATM   61  C   UNK     0     146.614  95.772 145.329  0.00  0.00     0.053 A 
BRANCH  59  62
HETATM   62  O   UNK     0     148.916  97.110 145.476  0.00  0.00    -0.331 OA
HETATM   63  C   UNK     0     150.053  96.071 145.479  0.00  0.00     0.181 C 
ENDBRANCH  59  62
ENDBRANCH  16  55
BRANCH  28  64
HETATM   64  O   UNK     0     134.570  89.653 150.812  0.00  0.00    -0.333 OA
HETATM   65  C   UNK     0     133.204  89.425 150.141  0.00  0.00     0.181 C 
ENDBRANCH  28  64
TORSDOF 3
ENDMDL
MODEL 3
REMARK VINA RESULT:     -10.1     64.971     68.268
REMARK  3 active torsions:
REMARK  status: ('A' for Active; 'I' for Inactive)
REMARK    1  A    between atoms: C_16  and  C_21 
REMARK    2  A    between atoms: C_24  and  O_62 
REMARK    3  A    between atoms: C_34  and  O_35 
ROOT
HETATM    1  C   UNK     0     116.383 143.097 188.534  0.00  0.00     0.018 A 
HETATM    2  C   UNK     0     117.289 144.082 187.772  0.00  0.00     0.166 A 
HETATM    3  C   UNK     0     116.786 142.610 189.939  0.00  0.00     0.004 A 
HETATM    4  N   UNK     0     118.597 144.580 188.414  0.00  0.00    -0.347 N 
HETATM    5  C   UNK     0     118.094 143.108 190.580  0.00  0.00     0.024 A 
HETATM    6  C   UNK     0     118.999 144.093 189.818  0.00  0.00     0.099 A 
HETATM    7  C   UNK     0     116.886 144.569 186.367  0.00  0.00     0.281 C 
HETATM    8  O   UNK     0     117.792 145.554 185.605  0.00  0.00    -0.189 OA
HETATM    9  O   UNK     0     119.101 146.052 186.246  0.00  0.00    -0.196 OA
HETATM   10  C   UNK     0     119.502 145.565 187.651  0.00  0.00     0.265 A 
HETATM   11  C   UNK     0     120.811 146.064 188.293  0.00  0.00     0.231 A 
HETATM   12  O   UNK     0     121.214 145.577 189.697  0.00  0.00    -0.216 OA
HETATM   13  C   UNK     0     115.175 144.557 184.320  0.00  0.00     0.175 A 
HETATM   14  C   UNK     0     116.081 145.542 183.558  0.00  0.00     0.075 A 
HETATM   15  O   UNK     0     115.578 144.071 185.725  0.00  0.00    -0.336 OA
HETATM   16  C   UNK     0     113.465 144.546 182.274  0.00  0.00     0.065 A 
HETATM   17  O   UNK     0     114.370 145.531 181.511  0.00  0.00    -0.317 OA
HETATM   18  C   UNK     0     113.868 144.059 183.678  0.00  0.00    -0.008 A 
HETATM   19  C   UNK     0     115.679 146.030 182.153  0.00  0.00     0.072 A 
HETATM   20  C   UNK     0     112.961 143.074 184.440  0.00  0.00     0.030 C 
HETATM   21  O   UNK     0     121.315 147.535 186.126  0.00  0.00    -0.365 OA
HETATM   22  C   UNK     0     121.716 147.048 187.531  0.00  0.00     0.149 A 
HETATM   23  C   UNK     0     122.220 148.520 185.364  0.00  0.00     0.151 A 
HETATM   24  C   UNK     0     123.528 149.018 186.006  0.00  0.00     0.021 A 
HETATM   25  C   UNK     0     123.025 147.546 188.173  0.00  0.00     0.030 A 
HETATM   26  C   UNK     0     123.930 148.531 187.411  0.00  0.00     0.004 A 
HETATM   27  C   UNK     0     121.817 149.007 183.960  0.00  0.00     0.071 C 
HETATM   28  C   UNK     0     122.723 149.992 183.197  0.00  0.00     0.066 C 
HETATM   29  C   UNK     0     121.012 149.981 181.150  0.00  0.00     0.028 C 
HETATM   30  C   UNK     0     122.321 150.479 181.792  0.00  0.00    -0.025 C 
HETATM   31  C   UNK     0     123.226 151.464 181.030  0.00  0.00     0.028 C 
HETATM   32  C   UNK     0     123.427 147.059 189.577  0.00  0.00     0.003 C 
HETATM   33  C   UNK     0     116.585 147.015 181.391  0.00  0.00    -0.021 C 
HETATM   34  C   UNK     0     117.893 147.513 182.032  0.00  0.00     0.028 C 
HETATM   35  C   UNK     0     116.182 147.502 179.986  0.00  0.00     0.048 C 
HETATM   36  C   UNK     0     117.088 148.487 179.224  0.00  0.00    -0.012 C 
HETATM   37  C   UNK     0     118.396 148.985 179.866  0.00  0.00     0.029 C 
HETATM   38  C   UNK     0     116.685 148.974 177.819  0.00  0.00     0.148 C 
HETATM   39  C   UNK     0     117.591 149.959 177.057  0.00  0.00     0.144 A 
HETATM   40  O   UNK     0     118.899 150.457 177.699  0.00  0.00    -0.322 OA
HETATM   41  O   UNK     0     115.377 148.476 177.177  0.00  0.00    -0.189 OA
HETATM   42  C   UNK     0     117.188 150.446 175.652  0.00  0.00     0.151 A 
HETATM   43  C   UNK     0     122.853 151.975 179.616  0.00  0.00     0.030 C 
HETATM   44  C   UNK     0     123.905 153.119 178.730  0.00  0.00    -0.026 C 
HETATM   45  C   UNK     0     118.094 151.431 174.889  0.00  0.00     0.004 A 
HETATM   46  C   UNK     0     119.413 151.910 175.580  0.00  0.00     0.002 A 
HETATM   47  C   UNK     0     119.805 151.442 176.936  0.00  0.00     0.175 A 
HETATM   48  O   UNK     0     115.880 149.947 175.010  0.00  0.00    -0.188 OA
HETATM   49  C   UNK     0     123.521 153.555 177.443  0.00  0.00    -0.005 C 
HETATM   50  C   UNK     0     122.121 152.958 176.877  0.00  0.00    -0.005 C 
HETATM   51  C   UNK     0     121.032 152.951 175.575  0.00  0.00    -0.024 C 
HETATM   52  C   UNK     0     117.656 151.885 173.504  0.00  0.00     0.033 C 
HETATM   53  O   UNK     0     120.471 146.553 186.959  0.00  0.00     0.000 OA
HETATM   54  C   UNK     0     121.353 153.812 174.339  0.00  0.00     0.031 C 
ENDROOT
BRANCH  16  55
HETATM   55  C   UNK     0     112.156 144.048 181.631  0.00  0.00     0.072 A 
HETATM   56  C   UNK     0     110.865 144.874 181.776  0.00  0.00     0.007 A 
HETATM   57  C   UNK     0     109.556 144.376 181.134  0.00  0.00     0.056 A 
HETATM   58  C   UNK     0     109.540 143.052 180.347  0.00  0.00     0.127 A 
HETATM   59  C   UNK     0     110.831 142.226 180.202  0.00  0.00     0.093 A 
HETATM   60  O   UNK     0     108.232 142.554 179.705  0.00  0.00    -0.193 OA
HETATM   61  C   UNK     0     112.140 142.724 180.845  0.00  0.00     0.053 A 
BRANCH  59  62
HETATM   62  O   UNK     0     110.815 140.903 179.416  0.00  0.00    -0.331 OA
HETATM   63  C   UNK     0     111.783 140.697 178.235  0.00  0.00     0.181 C 
ENDBRANCH  59  62
ENDBRANCH  16  55
BRANCH  28  64
HETATM   64  O   UNK     0     124.032 150.490 183.839  0.00  0.00    -0.333 OA
HETATM   65  C   UNK     0     125.388 150.023 183.283  0.00  0.00     0.181 C 
ENDBRANCH  28  64
TORSDOF 3
ENDMDL
MODEL 4
REMARK VINA RESULT:     -10.0     29.309     36.508
REMARK  3 active torsions:
REMARK  status: ('A' for Active; 'I' for Inactive)
REMARK    1  A    between atoms: C_16  and  C_21 
REMARK    2  A    between atoms: C_24  and  O_62 
REMARK    3  A    between atoms: C_34  and  O_35 
ROOT
HETATM    1  C   UNK     0     146.393 110.139 143.393  0.00  0.00     0.018 A 
HETATM    2  C   UNK     0     147.775 109.493 143.608  0.00  0.00     0.166 A 
HETATM    3  C   UNK     0     146.250 111.672 143.406  0.00  0.00     0.004 A 
HETATM    4  N   UNK     0     149.012 110.381 143.838  0.00  0.00    -0.347 N 
HETATM    5  C   UNK     0     147.487 112.559 143.636  0.00  0.00     0.024 A 
HETATM    6  C   UNK     0     148.868 111.913 143.851  0.00  0.00     0.099 A 
HETATM    7  C   UNK     0     147.918 107.959 143.595  0.00  0.00     0.281 C 
HETATM    8  O   UNK     0     149.300 107.314 143.810  0.00  0.00    -0.189 OA
HETATM    9  O   UNK     0     150.538 108.201 144.040  0.00  0.00    -0.196 OA
HETATM   10  C   UNK     0     150.393 109.734 144.053  0.00  0.00     0.265 A 
HETATM   11  C   UNK     0     151.632 110.621 144.283  0.00  0.00     0.231 A 
HETATM   12  O   UNK     0     151.488 112.155 144.296  0.00  0.00    -0.216 OA
HETATM   13  C   UNK     0     146.824 105.538 143.352  0.00  0.00     0.175 A 
HETATM   14  C   UNK     0     148.206 104.892 143.567  0.00  0.00     0.075 A 
HETATM   15  O   UNK     0     146.681 107.072 143.365  0.00  0.00    -0.336 OA
HETATM   16  C   UNK     0     145.731 103.118 143.109  0.00  0.00     0.065 A 
HETATM   17  O   UNK     0     147.112 102.472 143.324  0.00  0.00    -0.317 OA
HETATM   18  C   UNK     0     145.587 104.651 143.122  0.00  0.00    -0.008 A 
HETATM   19  C   UNK     0     148.351 103.359 143.554  0.00  0.00     0.072 A 
HETATM   20  C   UNK     0     144.205 105.296 142.907  0.00  0.00     0.030 C 
HETATM   21  O   UNK     0     153.157 108.443 144.485  0.00  0.00    -0.365 OA
HETATM   22  C   UNK     0     153.012 109.976 144.498  0.00  0.00     0.149 A 
HETATM   23  C   UNK     0     154.538 107.797 144.700  0.00  0.00     0.151 A 
HETATM   24  C   UNK     0     155.775 108.684 144.929  0.00  0.00     0.021 A 
HETATM   25  C   UNK     0     154.250 110.863 144.728  0.00  0.00     0.030 A 
HETATM   26  C   UNK     0     155.631 110.218 144.943  0.00  0.00     0.004 A 
HETATM   27  C   UNK     0     154.681 106.264 144.687  0.00  0.00     0.071 C 
HETATM   28  C   UNK     0     156.063 105.618 144.902  0.00  0.00     0.066 C 
HETATM   29  C   UNK     0     154.969 103.196 144.659  0.00  0.00     0.028 C 
HETATM   30  C   UNK     0     156.207 104.084 144.889  0.00  0.00    -0.025 C 
HETATM   31  C   UNK     0     157.588 103.438 145.104  0.00  0.00     0.028 C 
HETATM   32  C   UNK     0     154.106 112.396 144.741  0.00  0.00     0.003 C 
HETATM   33  C   UNK     0     149.732 102.713 143.769  0.00  0.00    -0.021 C 
HETATM   34  C   UNK     0     150.969 103.600 143.999  0.00  0.00     0.028 C 
HETATM   35  C   UNK     0     149.875 101.180 143.756  0.00  0.00     0.048 C 
HETATM   36  C   UNK     0     151.257 100.534 143.971  0.00  0.00    -0.012 C 
HETATM   37  C   UNK     0     152.494 101.422 144.201  0.00  0.00     0.029 C 
HETATM   38  C   UNK     0     151.400  99.001 143.958  0.00  0.00     0.148 C 
HETATM   39  C   UNK     0     152.782  98.355 144.173  0.00  0.00     0.144 A 
HETATM   40  O   UNK     0     154.019  99.243 144.403  0.00  0.00    -0.322 OA
HETATM   41  O   UNK     0     150.163  98.113 143.728  0.00  0.00    -0.189 OA
HETATM   42  C   UNK     0     152.925  96.821 144.160  0.00  0.00     0.151 A 
HETATM   43  C   UNK     0     157.770 101.900 145.097  0.00  0.00     0.030 C 
HETATM   44  C   UNK     0     159.375 101.150 145.347  0.00  0.00    -0.026 C 
HETATM   45  C   UNK     0     154.307  96.176 144.375  0.00  0.00     0.004 A 
HETATM   46  C   UNK     0     155.536  97.115 144.605  0.00  0.00     0.002 A 
HETATM   47  C   UNK     0     155.401  98.597 144.618  0.00  0.00     0.175 A 
HETATM   48  O   UNK     0     151.688  95.935 143.931  0.00  0.00    -0.188 OA
HETATM   49  C   UNK     0     159.489  99.742 145.332  0.00  0.00    -0.005 C 
HETATM   50  C   UNK     0     158.111  98.919 145.081  0.00  0.00    -0.005 C 
HETATM   51  C   UNK     0     157.416  97.379 144.926  0.00  0.00    -0.024 C 
HETATM   52  C   UNK     0     154.401  94.656 144.354  0.00  0.00     0.033 C 
HETATM   53  O   UNK     0     151.817 109.172 144.278  0.00  0.00     0.000 OA
HETATM   54  C   UNK     0     158.325  96.141 145.048  0.00  0.00     0.031 C 
ENDROOT
BRANCH  16  55
HETATM   55  C   UNK     0     144.493 102.230 142.879  0.00  0.00     0.072 A 
HETATM   56  C   UNK     0     144.348 101.435 141.568  0.00  0.00     0.007 A 
HETATM   57  C   UNK     0     143.110 100.547 141.339  0.00  0.00     0.056 A 
HETATM   58  C   UNK     0     142.018 100.455 142.421  0.00  0.00     0.127 A 
HETATM   59  C   UNK     0     142.163 101.250 143.732  0.00  0.00     0.093 A 
HETATM   60  O   UNK     0     140.781  99.567 142.191  0.00  0.00    -0.193 OA
HETATM   61  C   UNK     0     143.400 102.138 143.961  0.00  0.00     0.053 A 
BRANCH  59  62
HETATM   62  O   UNK     0     141.071 101.158 144.813  0.00  0.00    -0.331 OA
HETATM   63  C   UNK     0     141.326 100.347 146.097  0.00  0.00     0.181 C 
ENDBRANCH  59  62
ENDBRANCH  16  55
BRANCH  28  64
HETATM   64  O   UNK     0     157.301 106.505 145.132  0.00  0.00    -0.333 OA
HETATM   65  C   UNK     0     158.353 106.661 144.019  0.00  0.00     0.181 C 
ENDBRANCH  28  64
TORSDOF 3
ENDMDL
MODEL 5
REMARK VINA RESULT:      -9.8     65.834     68.967
REMARK  3 active torsions:
REMARK  status: ('A' for Active; 'I' for Inactive)
REMARK    1  A    between atoms: C_16  and  C_21 
REMARK    2  A    between atoms: C_24  and  O_62 
REMARK    3  A    between atoms: C_34  and  O_35 
ROOT
HETATM    1  C   UNK     0     114.087 141.804 188.224  0.00  0.00     0.018 A 
HETATM    2  C   UNK     0     115.300 142.697 187.904  0.00  0.00     0.166 A 
HETATM    3  C   UNK     0     114.015 141.055 189.568  0.00  0.00     0.004 A 
HETATM    4  N   UNK     0     116.441 142.842 188.928  0.00  0.00    -0.347 N 
HETATM    5  C   UNK     0     115.155 141.200 190.591  0.00  0.00     0.024 A 
HETATM    6  C   UNK     0     116.369 142.093 190.271  0.00  0.00     0.099 A 
HETATM    7  C   UNK     0     115.372 143.446 186.560  0.00  0.00     0.281 C 
HETATM    8  O   UNK     0     116.585 144.339 186.240  0.00  0.00    -0.189 OA
HETATM    9  O   UNK     0     117.727 144.484 187.264  0.00  0.00    -0.196 OA
HETATM   10  C   UNK     0     117.654 143.735 188.607  0.00  0.00     0.265 A 
HETATM   11  C   UNK     0     118.796 143.880 189.632  0.00  0.00     0.231 A 
HETATM   12  O   UNK     0     118.724 143.131 190.976  0.00  0.00    -0.216 OA
HETATM   13  C   UNK     0     114.303 144.050 184.191  0.00  0.00     0.175 A 
HETATM   14  C   UNK     0     115.516 144.943 183.871  0.00  0.00     0.075 A 
HETATM   15  O   UNK     0     114.231 143.301 185.535  0.00  0.00    -0.336 OA
HETATM   16  C   UNK     0     113.234 144.654 181.823  0.00  0.00     0.065 A 
HETATM   17  O   UNK     0     114.447 145.547 181.504  0.00  0.00    -0.317 OA
HETATM   18  C   UNK     0     113.162 143.905 183.168  0.00  0.00    -0.008 A 
HETATM   19  C   UNK     0     115.589 145.692 182.528  0.00  0.00     0.072 A 
HETATM   20  C   UNK     0     111.948 143.012 183.487  0.00  0.00     0.030 C 
HETATM   21  O   UNK     0     120.081 145.521 187.968  0.00  0.00    -0.365 OA
HETATM   22  C   UNK     0     120.008 144.772 189.312  0.00  0.00     0.149 A 
HETATM   23  C   UNK     0     121.294 146.414 187.649  0.00  0.00     0.151 A 
HETATM   24  C   UNK     0     122.434 146.559 188.672  0.00  0.00     0.021 A 
HETATM   25  C   UNK     0     121.149 144.917 190.336  0.00  0.00     0.030 A 
HETATM   26  C   UNK     0     122.362 145.810 190.016  0.00  0.00     0.004 A 
HETATM   27  C   UNK     0     121.366 147.162 186.305  0.00  0.00     0.071 C 
HETATM   28  C   UNK     0     122.580 148.056 185.985  0.00  0.00     0.066 C 
HETATM   29  C   UNK     0     121.510 148.660 183.616  0.00  0.00     0.028 C 
HETATM   30  C   UNK     0     122.652 148.805 184.640  0.00  0.00    -0.025 C 
HETATM   31  C   UNK     0     123.865 149.698 184.321  0.00  0.00     0.028 C 
HETATM   32  C   UNK     0     121.077 144.168 191.680  0.00  0.00     0.003 C 
HETATM   33  C   UNK     0     116.802 146.585 182.208  0.00  0.00    -0.021 C 
HETATM   34  C   UNK     0     117.943 146.730 183.231  0.00  0.00     0.028 C 
HETATM   35  C   UNK     0     116.874 147.334 180.864  0.00  0.00     0.048 C 
HETATM   36  C   UNK     0     118.087 148.227 180.544  0.00  0.00    -0.012 C 
HETATM   37  C   UNK     0     119.228 148.371 181.568  0.00  0.00     0.029 C 
HETATM   38  C   UNK     0     118.159 148.975 179.200  0.00  0.00     0.148 C 
HETATM   39  C   UNK     0     119.372 149.869 178.880  0.00  0.00     0.144 A 
HETATM   40  O   UNK     0     120.513 150.013 179.904  0.00  0.00    -0.322 OA
HETATM   41  O   UNK     0     117.018 148.831 178.175  0.00  0.00    -0.189 OA
HETATM   42  C   UNK     0     119.444 150.617 177.536  0.00  0.00     0.151 A 
HETATM   43  C   UNK     0     123.971 150.465 182.979  0.00  0.00     0.030 C 
HETATM   44  C   UNK     0     125.380 151.503 182.608  0.00  0.00    -0.026 C 
HETATM   45  C   UNK     0     120.657 151.510 177.216  0.00  0.00     0.004 A 
HETATM   46  C   UNK     0     121.793 151.628 178.285  0.00  0.00     0.002 A 
HETATM   47  C   UNK     0     121.727 150.906 179.584  0.00  0.00     0.175 A 
HETATM   48  O   UNK     0     118.304 150.472 176.512  0.00  0.00    -0.188 OA
HETATM   49  C   UNK     0     125.430 152.182 181.371  0.00  0.00    -0.005 C 
HETATM   50  C   UNK     0     124.166 151.948 180.378  0.00  0.00    -0.005 C 
HETATM   51  C   UNK     0     123.486 152.332 178.871  0.00  0.00    -0.024 C 
HETATM   52  C   UNK     0     120.686 152.231 175.875  0.00  0.00     0.033 C 
HETATM   53  O   UNK     0     118.908 144.609 188.370  0.00  0.00     0.000 OA
HETATM   54  C   UNK     0     124.255 153.283 177.934  0.00  0.00     0.031 C 
ENDROOT
BRANCH  16  55
HETATM   55  C   UNK     0     112.093 144.509 180.799  0.00  0.00     0.072 A 
HETATM   56  C   UNK     0     110.819 145.363 180.940  0.00  0.00     0.007 A 
HETATM   57  C   UNK     0     109.678 145.219 179.916  0.00  0.00     0.056 A 
HETATM   58  C   UNK     0     109.810 144.221 178.750  0.00  0.00     0.127 A 
HETATM   59  C   UNK     0     111.084 143.367 178.609  0.00  0.00     0.093 A 
HETATM   60  O   UNK     0     108.669 144.077 177.727  0.00  0.00    -0.193 OA
HETATM   61  C   UNK     0     112.225 143.511 179.634  0.00  0.00     0.053 A 
BRANCH  59  62
HETATM   62  O   UNK     0     111.217 142.369 177.445  0.00  0.00    -0.331 OA
HETATM   63  C   UNK     0     112.612 141.911 176.979  0.00  0.00     0.181 C 
ENDBRANCH  59  62
ENDBRANCH  16  55
BRANCH  28  64
HETATM   64  O   UNK     0     123.721 148.201 187.009  0.00  0.00    -0.333 OA
HETATM   65  C   UNK     0     123.816 149.465 187.882  0.00  0.00     0.181 C 
ENDBRANCH  28  64
TORSDOF 3
ENDMDL
MODEL 6
REMARK VINA RESULT:      -9.8     33.576     37.262
REMARK  3 active torsions:
REMARK  status: ('A' for Active; 'I' for Inactive)
REMARK    1  A    between atoms: C_16  and  C_21 
REMARK    2  A    between atoms: C_24  and  O_62 
REMARK    3  A    between atoms: C_34  and  O_35 
ROOT
HETATM    1  C   UNK     0     128.346 145.705 158.732  0.00  0.00     0.018 A 
HETATM    2  C   UNK     0     128.977 146.621 157.666  0.00  0.00     0.166 A 
HETATM    3  C   UNK     0     127.657 146.319 159.965  0.00  0.00     0.004 A 
HETATM    4  N   UNK     0     128.918 148.151 157.834  0.00  0.00    -0.347 N 
HETATM    5  C   UNK     0     127.599 147.849 160.132  0.00  0.00     0.024 A 
HETATM    6  C   UNK     0     128.229 148.764 159.067  0.00  0.00     0.099 A 
HETATM    7  C   UNK     0     129.666 146.007 156.433  0.00  0.00     0.281 C 
HETATM    8  O   UNK     0     130.296 146.923 155.368  0.00  0.00    -0.189 OA
HETATM    9  O   UNK     0     130.238 148.453 155.535  0.00  0.00    -0.196 OA
HETATM   10  C   UNK     0     129.549 149.066 156.768  0.00  0.00     0.265 A 
HETATM   11  C   UNK     0     129.491 150.597 156.935  0.00  0.00     0.231 A 
HETATM   12  O   UNK     0     128.802 151.211 158.168  0.00  0.00    -0.216 OA
HETATM   13  C   UNK     0     130.413 143.863 155.033  0.00  0.00     0.175 A 
HETATM   14  C   UNK     0     131.044 144.779 153.967  0.00  0.00     0.075 A 
HETATM   15  O   UNK     0     129.724 144.477 156.266  0.00  0.00    -0.336 OA
HETATM   16  C   UNK     0     131.161 141.720 153.632  0.00  0.00     0.065 A 
HETATM   17  O   UNK     0     131.791 142.635 152.567  0.00  0.00    -0.317 OA
HETATM   18  C   UNK     0     130.472 142.334 154.865  0.00  0.00    -0.008 A 
HETATM   19  C   UNK     0     131.733 144.166 152.734  0.00  0.00     0.072 A 
HETATM   20  C   UNK     0     129.841 141.417 155.930  0.00  0.00     0.030 C 
HETATM   21  O   UNK     0     130.810 150.899 154.637  0.00  0.00    -0.365 OA
HETATM   22  C   UNK     0     130.121 151.512 155.870  0.00  0.00     0.149 A 
HETATM   23  C   UNK     0     131.440 151.815 153.572  0.00  0.00     0.151 A 
HETATM   24  C   UNK     0     131.382 153.344 153.739  0.00  0.00     0.021 A 
HETATM   25  C   UNK     0     130.062 153.042 156.038  0.00  0.00     0.030 A 
HETATM   26  C   UNK     0     130.693 153.958 154.972  0.00  0.00     0.004 A 
HETATM   27  C   UNK     0     132.129 151.201 152.339  0.00  0.00     0.071 C 
HETATM   28  C   UNK     0     132.760 152.117 151.273  0.00  0.00     0.066 C 
HETATM   29  C   UNK     0     133.507 149.973 149.872  0.00  0.00     0.028 C 
HETATM   30  C   UNK     0     133.449 151.503 150.040  0.00  0.00    -0.025 C 
HETATM   31  C   UNK     0     134.079 152.419 148.974  0.00  0.00     0.028 C 
HETATM   32  C   UNK     0     129.373 153.655 157.270  0.00  0.00     0.003 C 
HETATM   33  C   UNK     0     132.363 145.082 151.668  0.00  0.00    -0.021 C 
HETATM   34  C   UNK     0     132.305 146.611 151.835  0.00  0.00     0.028 C 
HETATM   35  C   UNK     0     133.052 144.468 150.435  0.00  0.00     0.048 C 
HETATM   36  C   UNK     0     133.683 145.384 149.370  0.00  0.00    -0.012 C 
HETATM   37  C   UNK     0     133.624 146.914 149.537  0.00  0.00     0.029 C 
HETATM   38  C   UNK     0     134.372 144.770 148.137  0.00  0.00     0.148 C 
HETATM   39  C   UNK     0     135.002 145.685 147.071  0.00  0.00     0.144 A 
HETATM   40  O   UNK     0     134.944 147.215 147.239  0.00  0.00    -0.322 OA
HETATM   41  O   UNK     0     134.430 143.240 147.969  0.00  0.00    -0.189 OA
HETATM   42  C   UNK     0     135.691 145.071 145.838  0.00  0.00     0.151 A 
HETATM   43  C   UNK     0     134.780 151.836 147.722  0.00  0.00     0.030 C 
HETATM   44  C   UNK     0     135.513 152.900 146.484  0.00  0.00    -0.026 C 
HETATM   45  C   UNK     0     136.322 145.987 144.773  0.00  0.00     0.004 A 
HETATM   46  C   UNK     0     136.239 147.535 144.983  0.00  0.00     0.002 A 
HETATM   47  C   UNK     0     135.574 148.131 146.173  0.00  0.00     0.175 A 
HETATM   48  O   UNK     0     135.750 143.542 145.671  0.00  0.00    -0.188 OA
HETATM   49  C   UNK     0     136.140 152.321 145.360  0.00  0.00    -0.005 C 
HETATM   50  C   UNK     0     136.136 150.698 145.299  0.00  0.00    -0.005 C 
HETATM   51  C   UNK     0     136.611 149.334 144.408  0.00  0.00    -0.024 C 
HETATM   52  C   UNK     0     136.992 145.336 143.571  0.00  0.00     0.033 C 
HETATM   53  O   UNK     0     130.155 150.060 155.749  0.00  0.00     0.000 OA
HETATM   54  C   UNK     0     137.372 149.544 143.085  0.00  0.00     0.031 C 
ENDROOT
BRANCH  16  55
HETATM   55  C   UNK     0     131.219 140.190 153.465  0.00  0.00     0.072 A 
HETATM   56  C   UNK     0     132.419 139.400 154.020  0.00  0.00     0.007 A 
HETATM   57  C   UNK     0     132.477 137.870 153.853  0.00  0.00     0.056 A 
HETATM   58  C   UNK     0     131.336 137.129 153.129  0.00  0.00     0.127 A 
HETATM   59  C   UNK     0     130.137 137.919 152.574  0.00  0.00     0.093 A 
HETATM   60  O   UNK     0     131.395 135.600 152.962  0.00  0.00    -0.193 OA
HETATM   61  C   UNK     0     130.078 139.449 152.742  0.00  0.00     0.053 A 
BRANCH  59  62
HETATM   62  O   UNK     0     128.996 137.180 151.851  0.00  0.00    -0.331 OA
HETATM   63  C   UNK     0     127.939 136.411 152.666  0.00  0.00     0.181 C 
ENDBRANCH  59  62
ENDBRANCH  16  55
BRANCH  28  64
HETATM   64  O   UNK     0     132.701 153.647 151.440  0.00  0.00    -0.333 OA
HETATM   65  C   UNK     0     131.824 154.491 150.499  0.00  0.00     0.181 C 
ENDBRANCH  28  64
TORSDOF 3
ENDMDL
MODEL 7
REMARK VINA RESULT:      -9.7     60.707     68.326
REMARK  3 active torsions:
REMARK  status: ('A' for Active; 'I' for Inactive)
REMARK    1  A    between atoms: C_16  and  C_21 
REMARK    2  A    between atoms: C_24  and  O_62 
REMARK    3  A    between atoms: C_34  and  O_35 
ROOT
HETATM    1  C   UNK     0     152.261  91.723 170.709  0.00  0.00     0.018 A 
HETATM    2  C   UNK     0     151.618  90.450 171.289  0.00  0.00     0.166 A 
HETATM    3  C   UNK     0     151.971  93.093 171.351  0.00  0.00     0.004 A 
HETATM    4  N   UNK     0     150.686  90.546 172.512  0.00  0.00    -0.347 N 
HETATM    5  C   UNK     0     151.039  93.189 172.572  0.00  0.00     0.024 A 
HETATM    6  C   UNK     0     150.397  91.915 173.153  0.00  0.00     0.099 A 
HETATM    7  C   UNK     0     151.908  89.080 170.648  0.00  0.00     0.281 C 
HETATM    8  O   UNK     0     151.266  87.806 171.228  0.00  0.00    -0.189 OA
HETATM    9  O   UNK     0     150.333  87.902 172.451  0.00  0.00    -0.196 OA
HETATM   10  C   UNK     0     150.044  89.272 173.091  0.00  0.00     0.265 A 
HETATM   11  C   UNK     0     149.111  89.368 174.314  0.00  0.00     0.231 A 
HETATM   12  O   UNK     0     148.821  90.737 174.956  0.00  0.00    -0.216 OA
HETATM   13  C   UNK     0     153.130  87.614 168.783  0.00  0.00     0.175 A 
HETATM   14  C   UNK     0     152.488  86.340 169.364  0.00  0.00     0.075 A 
HETATM   15  O   UNK     0     152.841  88.983 169.425  0.00  0.00    -0.336 OA
HETATM   16  C   UNK     0     154.352  86.148 166.920  0.00  0.00     0.065 A 
HETATM   17  O   UNK     0     153.709  84.874 167.501  0.00  0.00    -0.317 OA
HETATM   18  C   UNK     0     154.062  87.518 167.562  0.00  0.00    -0.008 A 
HETATM   19  C   UNK     0     152.777  84.970 168.723  0.00  0.00     0.072 A 
HETATM   20  C   UNK     0     154.705  88.791 166.981  0.00  0.00     0.030 C 
HETATM   21  O   UNK     0     148.758  86.725 174.253  0.00  0.00    -0.365 OA
HETATM   22  C   UNK     0     148.469  88.095 174.894  0.00  0.00     0.149 A 
HETATM   23  C   UNK     0     148.116  85.452 174.833  0.00  0.00     0.151 A 
HETATM   24  C   UNK     0     147.184  85.548 176.055  0.00  0.00     0.021 A 
HETATM   25  C   UNK     0     147.537  88.191 176.116  0.00  0.00     0.030 A 
HETATM   26  C   UNK     0     146.894  86.918 176.697  0.00  0.00     0.004 A 
HETATM   27  C   UNK     0     148.406  84.082 174.192  0.00  0.00     0.071 C 
HETATM   28  C   UNK     0     147.763  82.808 174.772  0.00  0.00     0.066 C 
HETATM   29  C   UNK     0     148.985  81.342 172.908  0.00  0.00     0.028 C 
HETATM   30  C   UNK     0     148.052  81.438 174.131  0.00  0.00    -0.025 C 
HETATM   31  C   UNK     0     147.410  80.165 174.711  0.00  0.00     0.028 C 
HETATM   32  C   UNK     0     147.247  89.561 176.757  0.00  0.00     0.003 C 
HETATM   33  C   UNK     0     152.134  83.696 169.304  0.00  0.00    -0.021 C 
HETATM   34  C   UNK     0     151.202  83.792 170.525  0.00  0.00     0.028 C 
HETATM   35  C   UNK     0     152.424  82.327 168.662  0.00  0.00     0.048 C 
HETATM   36  C   UNK     0     151.781  81.053 169.242  0.00  0.00    -0.012 C 
HETATM   37  C   UNK     0     150.849  81.149 170.465  0.00  0.00     0.029 C 
HETATM   38  C   UNK     0     152.071  79.683 168.600  0.00  0.00     0.148 C 
HETATM   39  C   UNK     0     151.429  78.410 169.181  0.00  0.00     0.144 A 
HETATM   40  O   UNK     0     150.496  78.506 170.403  0.00  0.00    -0.322 OA
HETATM   41  O   UNK     0     153.003  79.587 167.378  0.00  0.00    -0.189 OA
HETATM   42  C   UNK     0     151.718  77.040 168.539  0.00  0.00     0.151 A 
HETATM   43  C   UNK     0     147.679  78.771 174.092  0.00  0.00     0.030 C 
HETATM   44  C   UNK     0     146.932  77.291 174.766  0.00  0.00    -0.026 C 
HETATM   45  C   UNK     0     151.076  75.766 169.120  0.00  0.00     0.004 A 
HETATM   46  C   UNK     0     150.135  75.911 170.362  0.00  0.00     0.002 A 
HETATM   47  C   UNK     0     149.854  77.233 170.984  0.00  0.00     0.175 A 
HETATM   48  O   UNK     0     152.650  76.944 167.318  0.00  0.00    -0.188 OA
HETATM   49  C   UNK     0     147.209  76.044 174.165  0.00  0.00    -0.005 C 
HETATM   50  C   UNK     0     148.206  76.075 172.884  0.00  0.00    -0.005 C 
HETATM   51  C   UNK     0     148.983  75.142 171.698  0.00  0.00    -0.024 C 
HETATM   52  C   UNK     0     151.390  74.434 168.453  0.00  0.00     0.033 C 
HETATM   53  O   UNK     0     149.357  88.047 173.739  0.00  0.00     0.000 OA
HETATM   54  C   UNK     0     148.758  73.618 171.691  0.00  0.00     0.031 C 
ENDROOT
BRANCH  16  55
HETATM   55  C   UNK     0     155.284  86.051 165.698  0.00  0.00     0.072 A 
HETATM   56  C   UNK     0     156.811  86.123 165.887  0.00  0.00     0.007 A 
HETATM   57  C   UNK     0     157.743  86.027 164.664  0.00  0.00     0.056 A 
HETATM   58  C   UNK     0     157.149  85.859 163.253  0.00  0.00     0.127 A 
HETATM   59  C   UNK     0     155.622  85.787 163.065  0.00  0.00     0.093 A 
HETATM   60  O   UNK     0     158.081  85.762 162.032  0.00  0.00    -0.193 OA
HETATM   61  C   UNK     0     154.690  85.883 164.287  0.00  0.00     0.053 A 
BRANCH  59  62
HETATM   62  O   UNK     0     155.028  85.619 161.655  0.00  0.00    -0.331 OA
HETATM   63  C   UNK     0     153.581  86.064 161.371  0.00  0.00     0.181 C 
ENDBRANCH  59  62
ENDBRANCH  16  55
BRANCH  28  64
HETATM   64  O   UNK     0     146.830  82.904 175.995  0.00  0.00    -0.333 OA
HETATM   65  C   UNK     0     145.315  82.695 175.825  0.00  0.00     0.181 C 
ENDBRANCH  28  64
TORSDOF 3
ENDMDL
MODEL 8
REMARK VINA RESULT:      -9.7      2.735      5.344
REMARK  3 active torsions:
REMARK  status: ('A' for Active; 'I' for Inactive)
REMARK    1  A    between atoms: C_16  and  C_21 
REMARK    2  A    between atoms: C_24  and  O_62 
REMARK    3  A    between atoms: C_34  and  O_35 
ROOT
HETATM    1  C   UNK     0     147.567 129.222 126.125  0.00  0.00     0.018 A 
HETATM    2  C   UNK     0     149.088 129.440 126.019  0.00  0.00     0.166 A 
HETATM    3  C   UNK     0     147.017 127.909 126.712  0.00  0.00     0.004 A 
HETATM    4  N   UNK     0     150.058 128.345 126.501  0.00  0.00    -0.347 N 
HETATM    5  C   UNK     0     147.987 126.814 127.193  0.00  0.00     0.024 A 
HETATM    6  C   UNK     0     149.508 127.032 127.087  0.00  0.00     0.099 A 
HETATM    7  C   UNK     0     149.639 130.753 125.432  0.00  0.00     0.281 C 
HETATM    8  O   UNK     0     151.160 130.971 125.327  0.00  0.00    -0.189 OA
HETATM    9  O   UNK     0     152.131 129.876 125.808  0.00  0.00    -0.196 OA
HETATM   10  C   UNK     0     151.579 128.564 126.395  0.00  0.00     0.265 A 
HETATM   11  C   UNK     0     152.550 127.469 126.876  0.00  0.00     0.231 A 
HETATM   12  O   UNK     0     152.000 126.155 127.463  0.00  0.00    -0.216 OA
HETATM   13  C   UNK     0     149.219 133.162 124.364  0.00  0.00     0.175 A 
HETATM   14  C   UNK     0     150.740 133.380 124.258  0.00  0.00     0.075 A 
HETATM   15  O   UNK     0     148.668 131.848 124.951  0.00  0.00    -0.336 OA
HETATM   16  C   UNK     0     148.800 135.569 123.296  0.00  0.00     0.065 A 
HETATM   17  O   UNK     0     150.320 135.787 123.190  0.00  0.00    -0.317 OA
HETATM   18  C   UNK     0     148.249 134.256 123.883  0.00  0.00    -0.008 A 
HETATM   19  C   UNK     0     151.292 134.692 123.672  0.00  0.00     0.072 A 
HETATM   20  C   UNK     0     146.728 134.039 123.988  0.00  0.00     0.030 C 
HETATM   21  O   UNK     0     154.622 128.999 126.184  0.00  0.00    -0.365 OA
HETATM   22  C   UNK     0     154.070 127.687 126.770  0.00  0.00     0.149 A 
HETATM   23  C   UNK     0     156.142 129.217 126.078  0.00  0.00     0.151 A 
HETATM   24  C   UNK     0     157.112 128.123 126.559  0.00  0.00     0.021 A 
HETATM   25  C   UNK     0     155.040 126.592 127.252  0.00  0.00     0.030 A 
HETATM   26  C   UNK     0     156.561 126.810 127.146  0.00  0.00     0.004 A 
HETATM   27  C   UNK     0     156.692 130.531 125.491  0.00  0.00     0.071 C 
HETATM   28  C   UNK     0     158.214 130.749 125.385  0.00  0.00     0.066 C 
HETATM   29  C   UNK     0     157.794 133.157 124.317  0.00  0.00     0.028 C 
HETATM   30  C   UNK     0     158.765 132.062 124.798  0.00  0.00    -0.025 C 
HETATM   31  C   UNK     0     160.285 132.280 124.693  0.00  0.00     0.028 C 
HETATM   32  C   UNK     0     154.490 125.279 127.838  0.00  0.00     0.003 C 
HETATM   33  C   UNK     0     152.812 134.911 123.566  0.00  0.00    -0.021 C 
HETATM   34  C   UNK     0     153.782 133.816 124.047  0.00  0.00     0.028 C 
HETATM   35  C   UNK     0     153.363 136.224 122.979  0.00  0.00     0.048 C 
HETATM   36  C   UNK     0     154.884 136.442 122.873  0.00  0.00    -0.012 C 
HETATM   37  C   UNK     0     155.854 135.347 123.355  0.00  0.00     0.029 C 
HETATM   38  C   UNK     0     155.434 137.755 122.286  0.00  0.00     0.148 C 
HETATM   39  C   UNK     0     156.955 137.973 122.181  0.00  0.00     0.144 A 
HETATM   40  O   UNK     0     157.925 136.878 122.662  0.00  0.00    -0.322 OA
HETATM   41  O   UNK     0     154.464 138.850 121.805  0.00  0.00    -0.189 OA
HETATM   42  C   UNK     0     157.506 139.287 121.594  0.00  0.00     0.151 A 
HETATM   43  C   UNK     0     160.874 133.588 124.108  0.00  0.00     0.030 C 
HETATM   44  C   UNK     0     162.641 133.841 123.985  0.00  0.00    -0.026 C 
HETATM   45  C   UNK     0     159.027 139.505 121.488  0.00  0.00     0.004 A 
HETATM   46  C   UNK     0     159.975 138.366 121.989  0.00  0.00     0.002 A 
HETATM   47  C   UNK     0     159.446 137.096 122.556  0.00  0.00     0.175 A 
HETATM   48  O   UNK     0     156.536 140.381 121.113  0.00  0.00    -0.188 OA
HETATM   49  C   UNK     0     163.129 135.051 123.444  0.00  0.00    -0.005 C 
HETATM   50  C   UNK     0     162.005 136.125 122.973  0.00  0.00    -0.005 C 
HETATM   51  C   UNK     0     161.738 137.657 122.294  0.00  0.00    -0.024 C 
HETATM   52  C   UNK     0     159.525 140.818 120.901  0.00  0.00     0.033 C 
HETATM   53  O   UNK     0     153.119 128.698 126.326  0.00  0.00     0.000 OA
HETATM   54  C   UNK     0     162.957 138.516 121.905  0.00  0.00     0.031 C 
ENDROOT
BRANCH  16  55
HETATM   55  C   UNK     0     147.829 136.665 122.815  0.00  0.00     0.072 A 
HETATM   56  C   UNK     0     147.542 137.885 123.708  0.00  0.00     0.007 A 
HETATM   57  C   UNK     0     146.572 138.981 123.227  0.00  0.00     0.056 A 
HETATM   58  C   UNK     0     145.889 138.855 121.852  0.00  0.00     0.127 A 
HETATM   59  C   UNK     0     146.176 137.634 120.959  0.00  0.00     0.093 A 
HETATM   60  O   UNK     0     144.919 139.950 121.372  0.00  0.00    -0.193 OA
HETATM   61  C   UNK     0     147.146 136.539 121.440  0.00  0.00     0.053 A 
BRANCH  59  62
HETATM   62  O   UNK     0     145.494 137.508 119.584  0.00  0.00    -0.331 OA
HETATM   63  C   UNK     0     144.103 136.856 119.472  0.00  0.00     0.181 C 
ENDBRANCH  59  62
ENDBRANCH  16  55
BRANCH  28  64
HETATM   64  O   UNK     0     159.184 129.654 125.867  0.00  0.00    -0.333 OA
HETATM   65  C   UNK     0     159.961 128.809 124.841  0.00  0.00     0.181 C 
ENDBRANCH  28  64
TORSDOF 3
ENDMDL
MODEL 9
REMARK VINA RESULT:      -9.3     29.166     35.108
REMARK  3 active torsions:
REMARK  status: ('A' for Active; 'I' for Inactive)
REMARK    1  A    between atoms: C_16  and  C_21 
REMARK    2  A    between atoms: C_24  and  O_62 
REMARK    3  A    between atoms: C_34  and  O_35 
ROOT
HETATM    1  C   UNK     0     148.311 112.269 143.810  0.00  0.00     0.018 A 
HETATM    2  C   UNK     0     148.422 110.733 143.782  0.00  0.00     0.166 A 
HETATM    3  C   UNK     0     146.945 112.946 143.592  0.00  0.00     0.004 A 
HETATM    4  N   UNK     0     147.167 109.875 143.535  0.00  0.00    -0.347 N 
HETATM    5  C   UNK     0     145.691 112.088 143.346  0.00  0.00     0.024 A 
HETATM    6  C   UNK     0     145.802 110.553 143.318  0.00  0.00     0.099 A 
HETATM    7  C   UNK     0     149.788 110.056 144.000  0.00  0.00     0.281 C 
HETATM    8  O   UNK     0     149.899 108.520 143.971  0.00  0.00    -0.189 OA
HETATM    9  O   UNK     0     148.644 107.661 143.725  0.00  0.00    -0.196 OA
HETATM   10  C   UNK     0     147.279 108.339 143.507  0.00  0.00     0.265 A 
HETATM   11  C   UNK     0     146.024 107.480 143.261  0.00  0.00     0.231 A 
HETATM   12  O   UNK     0     144.658 108.158 143.043  0.00  0.00    -0.216 OA
HETATM   13  C   UNK     0     152.409 110.236 144.464  0.00  0.00     0.175 A 
HETATM   14  C   UNK     0     152.520 108.701 144.435  0.00  0.00     0.075 A 
HETATM   15  O   UNK     0     151.043 110.914 144.246  0.00  0.00    -0.336 OA
HETATM   16  C   UNK     0     155.029 110.417 144.928  0.00  0.00     0.065 A 
HETATM   17  O   UNK     0     155.140 108.881 144.899  0.00  0.00    -0.317 OA
HETATM   18  C   UNK     0     153.663 111.095 144.710  0.00  0.00    -0.008 A 
HETATM   19  C   UNK     0     153.885 108.022 144.653  0.00  0.00     0.072 A 
HETATM   20  C   UNK     0     153.553 112.630 144.738  0.00  0.00     0.030 C 
HETATM   21  O   UNK     0     147.500 105.267 143.450  0.00  0.00    -0.365 OA
HETATM   22  C   UNK     0     146.135 105.945 143.233  0.00  0.00     0.149 A 
HETATM   23  C   UNK     0     147.611 103.732 143.422  0.00  0.00     0.151 A 
HETATM   24  C   UNK     0     146.356 102.874 143.176  0.00  0.00     0.021 A 
HETATM   25  C   UNK     0     144.880 105.087 142.986  0.00  0.00     0.030 A 
HETATM   26  C   UNK     0     144.990 103.551 142.958  0.00  0.00     0.004 A 
HETATM   27  C   UNK     0     148.977 103.055 143.640  0.00  0.00     0.071 C 
HETATM   28  C   UNK     0     149.088 101.518 143.611  0.00  0.00     0.066 C 
HETATM   29  C   UNK     0     151.709 101.698 144.075  0.00  0.00     0.028 C 
HETATM   30  C   UNK     0     150.454 100.840 143.829  0.00  0.00    -0.025 C 
HETATM   31  C   UNK     0     150.564  99.305 143.801  0.00  0.00     0.028 C 
HETATM   32  C   UNK     0     143.515 105.765 142.769  0.00  0.00     0.003 C 
HETATM   33  C   UNK     0     153.996 106.486 144.625  0.00  0.00    -0.021 C 
HETATM   34  C   UNK     0     152.742 105.628 144.378  0.00  0.00     0.028 C 
HETATM   35  C   UNK     0     155.362 105.809 144.842  0.00  0.00     0.048 C 
HETATM   36  C   UNK     0     155.473 104.273 144.814  0.00  0.00    -0.012 C 
HETATM   37  C   UNK     0     154.218 103.415 144.568  0.00  0.00     0.029 C 
HETATM   38  C   UNK     0     156.839 103.595 145.032  0.00  0.00     0.148 C 
HETATM   39  C   UNK     0     156.950 102.060 145.004  0.00  0.00     0.144 A 
HETATM   40  O   UNK     0     155.695 101.202 144.757  0.00  0.00    -0.322 OA
HETATM   41  O   UNK     0     158.094 104.454 145.278  0.00  0.00    -0.189 OA
HETATM   42  C   UNK     0     158.316 101.382 145.221  0.00  0.00     0.151 A 
HETATM   43  C   UNK     0     151.921  98.589 144.016  0.00  0.00     0.030 C 
HETATM   44  C   UNK     0     152.050  96.805 143.983  0.00  0.00    -0.026 C 
HETATM   45  C   UNK     0     158.427  99.846 145.193  0.00  0.00     0.004 A 
HETATM   46  C   UNK     0     157.126  99.014 144.940  0.00  0.00     0.002 A 
HETATM   47  C   UNK     0     155.806  99.666 144.729  0.00  0.00     0.175 A 
HETATM   48  O   UNK     0     159.570 102.240 145.468  0.00  0.00    -0.188 OA
HETATM   49  C   UNK     0     153.310  96.201 144.184  0.00  0.00    -0.005 C 
HETATM   50  C   UNK     0     154.555  97.213 144.434  0.00  0.00    -0.005 C 
HETATM   51  C   UNK     0     156.222  97.328 144.729  0.00  0.00    -0.024 C 
HETATM   52  C   UNK     0     159.797  99.220 145.413  0.00  0.00     0.033 C 
HETATM   53  O   UNK     0     147.298 106.793 143.462  0.00  0.00     0.000 OA
HETATM   54  C   UNK     0     157.046  96.030 144.833  0.00  0.00     0.031 C 
ENDROOT
BRANCH  16  55
HETATM   55  C   UNK     0     156.284 111.275 145.174  0.00  0.00     0.072 A 
HETATM   56  C   UNK     0     157.204 111.650 143.997  0.00  0.00     0.007 A 
HETATM   57  C   UNK     0     158.459 112.508 144.243  0.00  0.00     0.056 A 
HETATM   58  C   UNK     0     158.795 112.992 145.666  0.00  0.00     0.127 A 
HETATM   59  C   UNK     0     157.875 112.617 146.844  0.00  0.00     0.093 A 
HETATM   60  O   UNK     0     160.049 113.849 145.912  0.00  0.00    -0.193 OA
HETATM   61  C   UNK     0     156.620 111.759 146.597  0.00  0.00     0.053 A 
BRANCH  59  62
HETATM   62  O   UNK     0     158.210 113.100 148.266  0.00  0.00    -0.331 OA
HETATM   63  C   UNK     0     157.866 114.541 148.691  0.00  0.00     0.181 C 
ENDBRANCH  59  62
ENDBRANCH  16  55
BRANCH  28  64
HETATM   64  O   UNK     0     147.832 100.660 143.365  0.00  0.00    -0.333 OA
HETATM   65  C   UNK     0     147.231  99.829 144.513  0.00  0.00     0.181 C 
ENDBRANCH  28  64
TORSDOF 3
ENDMDL
MODEL 10
REMARK VINA RESULT:      -9.1     51.854     57.398
REMARK  3 active torsions:
REMARK  status: ('A' for Active; 'I' for Inactive)
REMARK    1  A    between atoms: C_16  and  C_21 
REMARK    2  A    between atoms: C_24  and  O_62 
REMARK    3  A    between atoms: C_34  and  O_35 
ROOT
HETATM    1  C   UNK     0     117.949 104.058 154.282  0.00  0.00     0.018 A 
HETATM    2  C   UNK     0     116.752 103.739 153.367  0.00  0.00     0.166 A 
HETATM    3  C   UNK     0     118.237 105.514 154.693  0.00  0.00     0.004 A 
HETATM    4  N   UNK     0     115.843 104.876 152.863  0.00  0.00    -0.347 N 
HETATM    5  C   UNK     0     117.329 106.650 154.189  0.00  0.00     0.024 A 
HETATM    6  C   UNK     0     116.132 106.331 153.274  0.00  0.00     0.099 A 
HETATM    7  C   UNK     0     116.463 102.282 152.957  0.00  0.00     0.281 C 
HETATM    8  O   UNK     0     115.266 101.963 152.042  0.00  0.00    -0.189 OA
HETATM    9  O   UNK     0     114.357 103.100 151.537  0.00  0.00    -0.196 OA
HETATM   10  C   UNK     0     114.646 104.555 151.948  0.00  0.00     0.265 A 
HETATM   11  C   UNK     0     113.737 105.692 151.443  0.00  0.00     0.231 A 
HETATM   12  O   UNK     0     114.026 107.148 151.854  0.00  0.00    -0.216 OA
HETATM   13  C   UNK     0     117.084  99.689 153.050  0.00  0.00     0.175 A 
HETATM   14  C   UNK     0     115.887  99.370 152.135  0.00  0.00     0.075 A 
HETATM   15  O   UNK     0     117.372 101.145 153.461  0.00  0.00    -0.336 OA
HETATM   16  C   UNK     0     117.704  97.097 153.144  0.00  0.00     0.065 A 
HETATM   17  O   UNK     0     116.507  96.778 152.229  0.00  0.00    -0.317 OA
HETATM   18  C   UNK     0     117.992  98.553 153.555  0.00  0.00    -0.008 A 
HETATM   19  C   UNK     0     115.597  97.914 151.724  0.00  0.00     0.072 A 
HETATM   20  C   UNK     0     119.189  98.871 154.469  0.00  0.00     0.030 C 
HETATM   21  O   UNK     0     112.252 103.917 150.118  0.00  0.00    -0.365 OA
HETATM   22  C   UNK     0     112.541 105.373 150.529  0.00  0.00     0.149 A 
HETATM   23  C   UNK     0     111.056 103.598 149.203  0.00  0.00     0.151 A 
HETATM   24  C   UNK     0     110.147 104.734 148.699  0.00  0.00     0.021 A 
HETATM   25  C   UNK     0     111.632 106.510 150.025  0.00  0.00     0.030 A 
HETATM   26  C   UNK     0     110.436 106.191 149.110  0.00  0.00     0.004 A 
HETATM   27  C   UNK     0     110.767 102.142 148.793  0.00  0.00     0.071 C 
HETATM   28  C   UNK     0     109.569 101.823 147.877  0.00  0.00     0.066 C 
HETATM   29  C   UNK     0     110.190  99.229 147.971  0.00  0.00     0.028 C 
HETATM   30  C   UNK     0     109.281 100.366 147.467  0.00  0.00    -0.025 C 
HETATM   31  C   UNK     0     108.084 100.047 146.552  0.00  0.00     0.028 C 
HETATM   32  C   UNK     0     111.921 107.965 150.435  0.00  0.00     0.003 C 
HETATM   33  C   UNK     0     114.400  97.595 150.809  0.00  0.00    -0.021 C 
HETATM   34  C   UNK     0     113.492  98.731 150.305  0.00  0.00     0.028 C 
HETATM   35  C   UNK     0     114.112  96.139 150.399  0.00  0.00     0.048 C 
HETATM   36  C   UNK     0     112.915  95.819 149.484  0.00  0.00    -0.012 C 
HETATM   37  C   UNK     0     112.007  96.956 148.979  0.00  0.00     0.029 C 
HETATM   38  C   UNK     0     112.627  94.363 149.073  0.00  0.00     0.148 C 
HETATM   39  C   UNK     0     111.430  94.044 148.158  0.00  0.00     0.144 A 
HETATM   40  O   UNK     0     110.521  95.181 147.654  0.00  0.00    -0.322 OA
HETATM   41  O   UNK     0     113.535  93.226 149.577  0.00  0.00    -0.189 OA
HETATM   42  C   UNK     0     111.141  92.588 147.747  0.00  0.00     0.151 A 
HETATM   43  C   UNK     0     107.764  98.595 146.119  0.00  0.00     0.030 C 
HETATM   44  C   UNK     0     106.374  98.224 145.056  0.00  0.00    -0.026 C 
HETATM   45  C   UNK     0     109.945  92.268 146.833  0.00  0.00     0.004 A 
HETATM   46  C   UNK     0     109.048  93.454 146.344  0.00  0.00     0.002 A 
HETATM   47  C   UNK     0     109.324  94.862 146.739  0.00  0.00     0.175 A 
HETATM   48  O   UNK     0     112.050  91.452 148.252  0.00  0.00    -0.188 OA
HETATM   49  C   UNK     0     106.124  96.883 144.689  0.00  0.00    -0.005 C 
HETATM   50  C   UNK     0     107.153  95.778 145.286  0.00  0.00    -0.005 C 
HETATM   51  C   UNK     0     107.548  94.128 145.345  0.00  0.00    -0.024 C 
HETATM   52  C   UNK     0     109.698  90.815 146.453  0.00  0.00     0.033 C 
HETATM   53  O   UNK     0     113.425 104.327 151.028  0.00  0.00     0.000 OA
HETATM   54  C   UNK     0     106.669  93.130 144.568  0.00  0.00     0.031 C 
ENDROOT
BRANCH  16  55
HETATM   55  C   UNK     0     118.612  95.960 153.648  0.00  0.00     0.072 A 
HETATM   56  C   UNK     0     118.346  95.313 155.020  0.00  0.00     0.007 A 
HETATM   57  C   UNK     0     119.255  94.176 155.524  0.00  0.00     0.056 A 
HETATM   58  C   UNK     0     120.429  93.686 154.657  0.00  0.00     0.127 A 
HETATM   59  C   UNK     0     120.695  94.333 153.285  0.00  0.00     0.093 A 
HETATM   60  O   UNK     0     121.337  92.550 155.161  0.00  0.00    -0.193 OA
HETATM   61  C   UNK     0     119.787  95.470 152.781  0.00  0.00     0.053 A 
BRANCH  59  62
HETATM   62  O   UNK     0     121.869  93.844 152.417  0.00  0.00    -0.331 OA
HETATM   63  C   UNK     0     123.271  94.452 152.605  0.00  0.00     0.181 C 
ENDBRANCH  59  62
ENDBRANCH  16  55
BRANCH  28  64
HETATM   64  O   UNK     0     108.661 102.960 147.373  0.00  0.00    -0.333 OA
HETATM   65  C   UNK     0     107.238 103.115 147.938  0.00  0.00     0.181 C 
ENDBRANCH  28  64
TORSDOF 3
ENDMDL
