MODEL 1
REMARK VINA RESULT:      -7.4      0.000      0.000
REMARK  2 active torsions:
REMARK  status: ('A' for Active; 'I' for Inactive)
REMARK    1  A    between atoms: S_1  and  O_7 
REMARK    2  A    between atoms: O_7  and  C_18 
ROOT
HETATM    1  O   UNK     0     152.333 116.248 192.360  0.00  0.00    -0.342 OA
HETATM    2  O   UNK     0     153.147 113.326 194.873  0.00  0.00     0.000 OA
HETATM    3  O   UNK     0     154.223 115.719 193.874  0.00  0.00    -0.329 OA
HETATM    4  O   UNK     0     149.507 114.033 192.173  0.00  0.00    -0.343 OA
HETATM    5  O   UNK     0     149.449 111.979 193.557  0.00  0.00    -0.344 OA
HETATM    6  C   UNK     0     152.010 114.932 193.073  0.00  0.00     0.202 A 
HETATM    7  C   UNK     0     150.799 113.983 192.992  0.00  0.00     0.187 A 
HETATM    8  C   UNK     0     153.184 114.603 194.013  0.00  0.00     0.185 A 
HETATM    9  C   UNK     0     150.763 112.706 193.852  0.00  0.00     0.168 A 
HETATM   10  C   UNK     0     151.937 112.378 194.793  0.00  0.00     0.024 A 
HETATM   11  C   UNK     0     153.697 116.732 192.854  0.00  0.00     0.187 A 
HETATM   12  C   UNK     0     148.674 112.797 192.521  0.00  0.00     0.186 A 
HETATM   13  C   UNK     0     154.358 114.275 194.953  0.00  0.00     0.143 A 
HETATM   14  C   UNK     0     154.970 117.579 193.042  0.00  0.00     0.061 C 
HETATM   15  C   UNK     0     153.590 117.965 191.937  0.00  0.00     0.061 C 
HETATM   16  C   UNK     0     147.581 113.258 191.538  0.00  0.00     0.061 C 
HETATM   17  C   UNK     0     147.539 111.757 192.549  0.00  0.00     0.061 C 
ENDROOT
BRANCH  13  18
HETATM   18  O   UNK     0     155.569 115.223 195.034  0.00  0.00    -0.212 OA
BRANCH  18  19
HETATM   19  S   UNK     0     156.814 114.816 195.844  0.00  0.00     0.406 S 
HETATM   20  O   UNK     0     156.200 113.425 196.090  0.00  0.00    -0.172 OA
HETATM   21  O   UNK     0     157.429 116.207 195.599  0.00  0.00    -0.172 OA
HETATM   22  N   UNK     0     158.058 114.410 196.654  0.00  0.00    -0.021 N 
ENDBRANCH  18  19
ENDBRANCH  13  18
TORSDOF 2
ENDMDL
MODEL 2
REMARK VINA RESULT:      -7.2      2.718      4.081
REMARK  2 active torsions:
REMARK  status: ('A' for Active; 'I' for Inactive)
REMARK    1  A    between atoms: S_1  and  O_7 
REMARK    2  A    between atoms: O_7  and  C_18 
ROOT
HETATM    1  O   UNK     0     155.172 113.895 195.259  0.00  0.00    -0.342 OA
HETATM    2  O   UNK     0     154.172 116.468 192.449  0.00  0.00     0.000 OA
HETATM    3  O   UNK     0     156.338 115.738 194.079  0.00  0.00    -0.329 OA
HETATM    4  O   UNK     0     151.754 113.125 194.455  0.00  0.00    -0.343 OA
HETATM    5  O   UNK     0     150.563 114.435 192.721  0.00  0.00    -0.344 OA
HETATM    6  C   UNK     0     154.189 114.509 194.259  0.00  0.00     0.202 A 
HETATM    7  C   UNK     0     152.724 114.178 193.915  0.00  0.00     0.187 A 
HETATM    8  C   UNK     0     154.912 115.653 193.526  0.00  0.00     0.185 A 
HETATM    9  C   UNK     0     151.984 114.993 192.837  0.00  0.00     0.168 A 
HETATM   10  C   UNK     0     152.708 116.138 192.105  0.00  0.00     0.024 A 
HETATM   11  C   UNK     0     156.497 114.653 195.148  0.00  0.00     0.187 A 
HETATM   12  C   UNK     0     150.421 113.283 193.719  0.00  0.00     0.186 A 
HETATM   13  C   UNK     0     155.636 116.798 192.793  0.00  0.00     0.143 A 
HETATM   14  C   UNK     0     157.952 115.099 195.382  0.00  0.00     0.061 C 
HETATM   15  C   UNK     0     157.102 113.754 196.243  0.00  0.00     0.061 C 
HETATM   16  C   UNK     0     149.834 112.115 194.533  0.00  0.00     0.061 C 
HETATM   17  C   UNK     0     148.964 113.073 193.267  0.00  0.00     0.061 C 
ENDROOT
BRANCH  13  18
HETATM   18  O   UNK     0     157.101 117.128 193.138  0.00  0.00    -0.212 OA
BRANCH  18  19
HETATM   19  S   UNK     0     158.003 117.811 192.092  0.00  0.00     0.406 S 
HETATM   20  O   UNK     0     157.539 116.797 191.030  0.00  0.00    -0.172 OA
HETATM   21  O   UNK     0     158.467 118.825 193.155  0.00  0.00    -0.172 OA
HETATM   22  N   UNK     0     158.905 118.494 191.048  0.00  0.00    -0.021 N 
ENDBRANCH  18  19
ENDBRANCH  13  18
TORSDOF 2
ENDMDL
MODEL 3
REMARK VINA RESULT:      -7.2      5.636      9.318
REMARK  2 active torsions:
REMARK  status: ('A' for Active; 'I' for Inactive)
REMARK    1  A    between atoms: S_1  and  O_7 
REMARK    2  A    between atoms: O_7  and  C_18 
ROOT
HETATM    1  O   UNK     0     148.583 110.913 195.618  0.00  0.00    -0.342 OA
HETATM    2  O   UNK     0     146.847 112.560 192.490  0.00  0.00     0.000 OA
HETATM    3  O   UNK     0     146.364 110.698 194.533  0.00  0.00    -0.329 OA
HETATM    4  O   UNK     0     151.029 113.177 194.270  0.00  0.00    -0.343 OA
HETATM    5  O   UNK     0     150.497 114.521 192.258  0.00  0.00    -0.344 OA
HETATM    6  C   UNK     0     148.555 111.859 194.414  0.00  0.00     0.202 A 
HETATM    7  C   UNK     0     149.603 112.828 193.837  0.00  0.00     0.187 A 
HETATM    8  C   UNK     0     147.177 111.725 193.740  0.00  0.00     0.185 A 
HETATM    9  C   UNK     0     149.273 113.664 192.586  0.00  0.00     0.168 A 
HETATM   10  C   UNK     0     147.894 113.530 191.912  0.00  0.00     0.024 A 
HETATM   11  C   UNK     0     147.233 110.198 195.691  0.00  0.00     0.187 A 
HETATM   12  C   UNK     0     151.581 114.221 193.296  0.00  0.00     0.186 A 
HETATM   13  C   UNK     0     145.798 111.591 193.067  0.00  0.00     0.143 A 
HETATM   14  C   UNK     0     146.087 109.275 196.150  0.00  0.00     0.061 C 
HETATM   15  C   UNK     0     147.707 109.433 196.941  0.00  0.00     0.061 C 
HETATM   16  C   UNK     0     152.909 114.246 194.076  0.00  0.00     0.061 C 
HETATM   17  C   UNK     0     152.520 115.228 192.606  0.00  0.00     0.061 C 
ENDROOT
BRANCH  13  18
HETATM   18  O   UNK     0     144.750 110.621 193.644  0.00  0.00    -0.212 OA
BRANCH  18  19
HETATM   19  S   UNK     0     143.724 109.951 192.711  0.00  0.00     0.406 S 
HETATM   20  O   UNK     0     144.685 110.136 191.521  0.00  0.00    -0.172 OA
HETATM   21  O   UNK     0     142.763 109.765 193.900  0.00  0.00    -0.172 OA
HETATM   22  N   UNK     0     142.699 109.281 191.779  0.00  0.00    -0.021 N 
ENDBRANCH  18  19
ENDBRANCH  13  18
TORSDOF 2
ENDMDL
MODEL 4
REMARK VINA RESULT:      -7.1     40.174     41.661
REMARK  2 active torsions:
REMARK  status: ('A' for Active; 'I' for Inactive)
REMARK    1  A    between atoms: S_1  and  O_7 
REMARK    2  A    between atoms: O_7  and  C_18 
ROOT
HETATM    1  O   UNK     0     152.925 114.369 150.912  0.00  0.00    -0.342 OA
HETATM    2  O   UNK     0     152.505 117.360 153.440  0.00  0.00     0.000 OA
HETATM    3  O   UNK     0     153.113 116.836 150.751  0.00  0.00    -0.329 OA
HETATM    4  O   UNK     0     152.084 112.833 154.052  0.00  0.00    -0.343 OA
HETATM    5  O   UNK     0     151.693 114.240 156.054  0.00  0.00    -0.344 OA
HETATM    6  C   UNK     0     152.631 114.954 152.296  0.00  0.00     0.202 A 
HETATM    7  C   UNK     0     152.271 114.296 153.641  0.00  0.00     0.187 A 
HETATM    8  C   UNK     0     152.748 116.486 152.196  0.00  0.00     0.185 A 
HETATM    9  C   UNK     0     152.028 115.170 154.886  0.00  0.00     0.168 A 
HETATM   10  C   UNK     0     152.145 116.703 154.785  0.00  0.00     0.024 A 
HETATM   11  C   UNK     0     153.222 115.529 149.960  0.00  0.00     0.187 A 
HETATM   12  C   UNK     0     151.728 112.798 155.540  0.00  0.00     0.186 A 
HETATM   13  C   UNK     0     152.865 118.018 152.095  0.00  0.00     0.143 A 
HETATM   14  C   UNK     0     153.573 116.328 148.691  0.00  0.00     0.061 C 
HETATM   15  C   UNK     0     153.435 114.528 148.809  0.00  0.00     0.061 C 
HETATM   16  C   UNK     0     151.647 111.261 155.484  0.00  0.00     0.061 C 
HETATM   17  C   UNK     0     151.362 112.289 156.947  0.00  0.00     0.061 C 
ENDROOT
BRANCH  13  18
HETATM   18  O   UNK     0     153.225 118.677 150.750  0.00  0.00    -0.212 OA
BRANCH  18  19
HETATM   19  S   UNK     0     154.191 119.876 150.714  0.00  0.00     0.406 S 
HETATM   20  O   UNK     0     154.364 119.784 152.241  0.00  0.00    -0.172 OA
HETATM   21  O   UNK     0     154.019 119.968 149.186  0.00  0.00    -0.172 OA
HETATM   22  N   UNK     0     155.156 121.075 150.677  0.00  0.00    -0.021 N 
ENDBRANCH  18  19
ENDBRANCH  13  18
TORSDOF 2
ENDMDL
MODEL 5
REMARK VINA RESULT:      -7.0      5.562      7.364
REMARK  2 active torsions:
REMARK  status: ('A' for Active; 'I' for Inactive)
REMARK    1  A    between atoms: S_1  and  O_7 
REMARK    2  A    between atoms: O_7  and  C_18 
ROOT
HETATM    1  O   UNK     0     158.226 118.095 191.455  0.00  0.00    -0.342 OA
HETATM    2  O   UNK     0     158.761 114.197 191.273  0.00  0.00     0.000 OA
HETATM    3  O   UNK     0     159.762 116.596 190.214  0.00  0.00    -0.329 OA
HETATM    4  O   UNK     0     155.790 116.707 193.704  0.00  0.00    -0.343 OA
HETATM    5  O   UNK     0     155.645 114.253 194.014  0.00  0.00    -0.344 OA
HETATM    6  C   UNK     0     157.898 116.653 191.852  0.00  0.00     0.202 A 
HETATM    7  C   UNK     0     156.854 116.059 192.815  0.00  0.00     0.187 A 
HETATM    8  C   UNK     0     158.851 115.722 191.081  0.00  0.00     0.185 A 
HETATM    9  C   UNK     0     156.764 114.533 193.008  0.00  0.00     0.168 A 
HETATM   10  C   UNK     0     157.718 113.602 192.237  0.00  0.00     0.024 A 
HETATM   11  C   UNK     0     159.376 118.059 190.445  0.00  0.00     0.187 A 
HETATM   12  C   UNK     0     155.044 115.594 194.444  0.00  0.00     0.186 A 
HETATM   13  C   UNK     0     159.806 114.791 190.310  0.00  0.00     0.143 A 
HETATM   14  C   UNK     0     160.466 118.503 189.452  0.00  0.00     0.061 C 
HETATM   15  C   UNK     0     159.345 119.597 190.358  0.00  0.00     0.061 C 
HETATM   16  C   UNK     0     154.163 116.647 195.141  0.00  0.00     0.061 C 
HETATM   17  C   UNK     0     154.058 114.855 195.368  0.00  0.00     0.061 C 
ENDROOT
BRANCH  13  18
HETATM   18  O   UNK     0     160.850 115.385 189.346  0.00  0.00    -0.212 OA
BRANCH  18  19
HETATM   19  S   UNK     0     161.796 114.454 188.565  0.00  0.00     0.406 S 
HETATM   20  O   UNK     0     162.600 115.675 188.081  0.00  0.00    -0.172 OA
HETATM   21  O   UNK     0     160.992 113.232 189.049  0.00  0.00    -0.172 OA
HETATM   22  N   UNK     0     162.741 113.522 187.785  0.00  0.00    -0.021 N 
ENDBRANCH  18  19
ENDBRANCH  13  18
TORSDOF 2
ENDMDL
MODEL 6
REMARK VINA RESULT:      -6.9     39.461     40.937
REMARK  2 active torsions:
REMARK  status: ('A' for Active; 'I' for Inactive)
REMARK    1  A    between atoms: S_1  and  O_7 
REMARK    2  A    between atoms: O_7  and  C_18 
ROOT
HETATM    1  O   UNK     0     152.568 114.353 151.466  0.00  0.00    -0.342 OA
HETATM    2  O   UNK     0     152.198 117.358 153.986  0.00  0.00     0.000 OA
HETATM    3  O   UNK     0     153.939 116.339 152.034  0.00  0.00    -0.329 OA
HETATM    4  O   UNK     0     149.446 113.783 153.156  0.00  0.00    -0.343 OA
HETATM    5  O   UNK     0     148.666 115.375 154.888  0.00  0.00    -0.344 OA
HETATM    6  C   UNK     0     151.832 115.136 152.557  0.00  0.00     0.202 A 
HETATM    7  C   UNK     0     150.495 114.892 153.281  0.00  0.00     0.187 A 
HETATM    8  C   UNK     0     152.684 116.369 152.910  0.00  0.00     0.185 A 
HETATM    9  C   UNK     0     150.009 115.881 154.357  0.00  0.00     0.168 A 
HETATM   10  C   UNK     0     150.862 117.114 154.710  0.00  0.00     0.024 A 
HETATM   11  C   UNK     0     153.867 115.095 151.144  0.00  0.00     0.187 A 
HETATM   12  C   UNK     0     148.318 114.081 154.147  0.00  0.00     0.186 A 
HETATM   13  C   UNK     0     153.536 117.603 153.262  0.00  0.00     0.143 A 
HETATM   14  C   UNK     0     155.219 115.472 150.510  0.00  0.00     0.061 C 
HETATM   15  C   UNK     0     154.218 114.022 150.096  0.00  0.00     0.061 C 
HETATM   16  C   UNK     0     147.581 112.809 153.688  0.00  0.00     0.061 C 
HETATM   17  C   UNK     0     147.010 113.972 154.953  0.00  0.00     0.061 C 
ENDROOT
BRANCH  13  18
HETATM   18  O   UNK     0     154.873 117.847 152.539  0.00  0.00    -0.212 OA
BRANCH  18  19
HETATM   19  S   UNK     0     155.907 118.819 153.138  0.00  0.00     0.406 S 
HETATM   20  O   UNK     0     156.264 117.777 154.214  0.00  0.00    -0.172 OA
HETATM   21  O   UNK     0     155.551 119.862 152.061  0.00  0.00    -0.172 OA
HETATM   22  N   UNK     0     156.940 119.791 153.736  0.00  0.00    -0.021 N 
ENDBRANCH  18  19
ENDBRANCH  13  18
TORSDOF 2
ENDMDL
MODEL 7
REMARK VINA RESULT:      -6.9      5.701      7.389
REMARK  2 active torsions:
REMARK  status: ('A' for Active; 'I' for Inactive)
REMARK    1  A    between atoms: S_1  and  O_7 
REMARK    2  A    between atoms: O_7  and  C_18 
ROOT
HETATM    1  O   UNK     0     154.796 116.702 197.926  0.00  0.00    -0.342 OA
HETATM    2  O   UNK     0     157.518 114.035 198.921  0.00  0.00     0.000 OA
HETATM    3  O   UNK     0     155.593 115.729 200.062  0.00  0.00    -0.329 OA
HETATM    4  O   UNK     0     156.259 115.649 194.816  0.00  0.00    -0.343 OA
HETATM    5  O   UNK     0     158.063 113.950 194.807  0.00  0.00    -0.344 OA
HETATM    6  C   UNK     0     155.902 115.695 197.600  0.00  0.00     0.202 A 
HETATM    7  C   UNK     0     156.528 115.244 196.267  0.00  0.00     0.187 A 
HETATM    8  C   UNK     0     156.397 115.090 198.926  0.00  0.00     0.185 A 
HETATM    9  C   UNK     0     157.650 114.188 196.261  0.00  0.00     0.168 A 
HETATM   10  C   UNK     0     158.145 113.583 197.589  0.00  0.00     0.024 A 
HETATM   11  C   UNK     0     154.606 116.723 199.444  0.00  0.00     0.187 A 
HETATM   12  C   UNK     0     157.205 114.851 193.915  0.00  0.00     0.186 A 
HETATM   13  C   UNK     0     156.892 114.486 200.254  0.00  0.00     0.143 A 
HETATM   14  C   UNK     0     154.080 117.072 200.849  0.00  0.00     0.061 C 
HETATM   15  C   UNK     0     153.498 117.782 199.290  0.00  0.00     0.061 C 
HETATM   16  C   UNK     0     156.608 115.543 192.676  0.00  0.00     0.061 C 
HETATM   17  C   UNK     0     157.926 114.302 192.669  0.00  0.00     0.061 C 
ENDROOT
BRANCH  13  18
HETATM   18  O   UNK     0     156.265 114.937 201.586  0.00  0.00    -0.212 OA
BRANCH  18  19
HETATM   19  S   UNK     0     157.125 114.991 202.863  0.00  0.00     0.406 S 
HETATM   20  O   UNK     0     155.945 115.613 203.632  0.00  0.00    -0.172 OA
HETATM   21  O   UNK     0     158.306 114.369 202.093  0.00  0.00    -0.172 OA
HETATM   22  N   UNK     0     157.986 115.045 204.138  0.00  0.00    -0.021 N 
ENDBRANCH  18  19
ENDBRANCH  13  18
TORSDOF 2
ENDMDL
MODEL 8
REMARK VINA RESULT:      -6.9      3.851      5.155
REMARK  2 active torsions:
REMARK  status: ('A' for Active; 'I' for Inactive)
REMARK    1  A    between atoms: S_1  and  O_7 
REMARK    2  A    between atoms: O_7  and  C_18 
ROOT
HETATM    1  O   UNK     0     153.795 116.176 192.590  0.00  0.00    -0.342 OA
HETATM    2  O   UNK     0     157.553 115.011 192.414  0.00  0.00     0.000 OA
HETATM    3  O   UNK     0     155.939 117.269 191.995  0.00  0.00    -0.329 OA
HETATM    4  O   UNK     0     153.751 112.718 193.569  0.00  0.00    -0.343 OA
HETATM    5  O   UNK     0     155.864 111.426 193.649  0.00  0.00    -0.344 OA
HETATM    6  C   UNK     0     154.908 115.135 192.733  0.00  0.00     0.202 A 
HETATM    7  C   UNK     0     154.889 113.653 193.153  0.00  0.00     0.187 A 
HETATM    8  C   UNK     0     156.240 115.813 192.364  0.00  0.00     0.185 A 
HETATM    9  C   UNK     0     156.202 112.850 193.203  0.00  0.00     0.168 A 
HETATM   10  C   UNK     0     157.535 113.529 192.833  0.00  0.00     0.024 A 
HETATM   11  C   UNK     0     154.431 117.492 192.134  0.00  0.00     0.187 A 
HETATM   12  C   UNK     0     154.353 111.343 193.875  0.00  0.00     0.186 A 
HETATM   13  C   UNK     0     157.572 116.492 191.994  0.00  0.00     0.143 A 
HETATM   14  C   UNK     0     154.609 118.958 191.698  0.00  0.00     0.061 C 
HETATM   15  C   UNK     0     153.043 118.161 192.132  0.00  0.00     0.061 C 
HETATM   16  C   UNK     0     152.950 110.806 194.214  0.00  0.00     0.061 C 
HETATM   17  C   UNK     0     154.493 109.862 194.273  0.00  0.00     0.061 C 
ENDROOT
BRANCH  13  18
HETATM   18  O   UNK     0     157.591 117.974 191.575  0.00  0.00    -0.212 OA
BRANCH  18  19
HETATM   19  S   UNK     0     158.932 118.718 191.432  0.00  0.00     0.406 S 
HETATM   20  O   UNK     0     158.426 119.816 192.386  0.00  0.00    -0.172 OA
HETATM   21  O   UNK     0     159.439 117.619 190.478  0.00  0.00    -0.172 OA
HETATM   22  N   UNK     0     160.273 119.460 191.289  0.00  0.00    -0.021 N 
ENDBRANCH  18  19
ENDBRANCH  13  18
TORSDOF 2
ENDMDL
MODEL 9
REMARK VINA RESULT:      -6.8     58.669     61.129
REMARK  2 active torsions:
REMARK  status: ('A' for Active; 'I' for Inactive)
REMARK    1  A    between atoms: S_1  and  O_7 
REMARK    2  A    between atoms: O_7  and  C_18 
ROOT
HETATM    1  O   UNK     0     112.593 116.901 150.986  0.00  0.00    -0.342 OA
HETATM    2  O   UNK     0     110.445 114.960 148.315  0.00  0.00     0.000 OA
HETATM    3  O   UNK     0     110.500 115.574 151.054  0.00  0.00    -0.329 OA
HETATM    4  O   UNK     0     114.332 117.356 147.872  0.00  0.00    -0.343 OA
HETATM    5  O   UNK     0     113.438 116.344 145.795  0.00  0.00    -0.344 OA
HETATM    6  C   UNK     0     112.300 116.413 149.565  0.00  0.00     0.202 A 
HETATM    7  C   UNK     0     113.046 116.608 148.231  0.00  0.00     0.187 A 
HETATM    8  C   UNK     0     111.001 115.589 149.607  0.00  0.00     0.185 A 
HETATM    9  C   UNK     0     112.490 115.979 146.940  0.00  0.00     0.168 A 
HETATM   10  C   UNK     0     111.190 115.154 146.982  0.00  0.00     0.024 A 
HETATM   11  C   UNK     0     111.483 116.384 151.904  0.00  0.00     0.187 A 
HETATM   12  C   UNK     0     114.574 117.194 146.370  0.00  0.00     0.186 A 
HETATM   13  C   UNK     0     109.700 114.765 149.649  0.00  0.00     0.143 A 
HETATM   14  C   UNK     0     110.631 116.103 153.155  0.00  0.00     0.061 C 
HETATM   15  C   UNK     0     112.158 117.071 153.106  0.00  0.00     0.061 C 
HETATM   16  C   UNK     0     115.856 118.039 146.486  0.00  0.00     0.061 C 
HETATM   17  C   UNK     0     115.203 117.300 144.968  0.00  0.00     0.061 C 
ENDROOT
BRANCH  13  18
HETATM   18  O   UNK     0     108.955 114.569 150.983  0.00  0.00    -0.212 OA
BRANCH  18  19
HETATM   19  S   UNK     0     107.779 113.578 151.071  0.00  0.00     0.406 S 
HETATM   20  O   UNK     0     107.320 114.239 152.384  0.00  0.00    -0.172 OA
HETATM   21  O   UNK     0     108.238 112.917 149.757  0.00  0.00    -0.172 OA
HETATM   22  N   UNK     0     106.604 112.587 151.158  0.00  0.00    -0.021 N 
ENDBRANCH  18  19
ENDBRANCH  13  18
TORSDOF 2
ENDMDL
MODEL 10
REMARK VINA RESULT:      -6.7     39.375     40.430
REMARK  2 active torsions:
REMARK  status: ('A' for Active; 'I' for Inactive)
REMARK    1  A    between atoms: S_1  and  O_7 
REMARK    2  A    between atoms: O_7  and  C_18 
ROOT
HETATM    1  O   UNK     0     123.853 115.492 167.219  0.00  0.00    -0.342 OA
HETATM    2  O   UNK     0     125.648 117.459 164.317  0.00  0.00     0.000 OA
HETATM    3  O   UNK     0     124.910 114.857 165.067  0.00  0.00    -0.329 OA
HETATM    4  O   UNK     0     123.769 118.940 168.231  0.00  0.00    -0.343 OA
HETATM    5  O   UNK     0     124.767 120.683 166.779  0.00  0.00    -0.344 OA
HETATM    6  C   UNK     0     124.372 116.770 166.555  0.00  0.00     0.202 A 
HETATM    7  C   UNK     0     124.336 118.248 166.989  0.00  0.00     0.187 A 
HETATM    8  C   UNK     0     125.028 116.376 165.219  0.00  0.00     0.185 A 
HETATM    9  C   UNK     0     124.956 119.331 166.087  0.00  0.00     0.168 A 
HETATM   10  C   UNK     0     125.612 118.936 164.750  0.00  0.00     0.024 A 
HETATM   11  C   UNK     0     124.185 114.313 166.301  0.00  0.00     0.187 A 
HETATM   12  C   UNK     0     124.035 120.442 168.101  0.00  0.00     0.186 A 
HETATM   13  C   UNK     0     125.685 115.982 163.883  0.00  0.00     0.143 A 
HETATM   14  C   UNK     0     124.297 112.885 165.735  0.00  0.00     0.061 C 
HETATM   15  C   UNK     0     123.526 113.348 167.305  0.00  0.00     0.061 C 
HETATM   16  C   UNK     0     123.347 120.680 169.459  0.00  0.00     0.061 C 
HETATM   17  C   UNK     0     124.076 121.953 168.398  0.00  0.00     0.061 C 
ENDROOT
BRANCH  13  18
HETATM   18  O   UNK     0     125.721 114.505 163.449  0.00  0.00    -0.212 OA
BRANCH  18  19
HETATM   19  S   UNK     0     125.698 114.140 161.952  0.00  0.00     0.406 S 
HETATM   20  O   UNK     0     126.810 113.101 162.188  0.00  0.00    -0.172 OA
HETATM   21  O   UNK     0     124.585 115.179 161.717  0.00  0.00    -0.172 OA
HETATM   22  N   UNK     0     125.675 113.777 160.457  0.00  0.00    -0.021 N 
ENDBRANCH  18  19
ENDBRANCH  13  18
TORSDOF 2
ENDMDL
