MODEL 1
REMARK VINA RESULT:      -4.3      0.000      0.000
REMARK  5 active torsions:
REMARK  status: ('A' for Active; 'I' for Inactive)
REMARK    1  A    between atoms: C_2  and  C_3 
REMARK    2  A    between atoms: C_3  and  C_4 
REMARK    3  A    between atoms: C_4  and  C_8 
REMARK    4  A    between atoms: C_4  and  C_5 
REMARK    5  A    between atoms: C_6  and  C_8 
ROOT
HETATM    1  C   UNK     0     161.419 161.239 160.057  0.00  0.00     0.087 C 
ENDROOT
BRANCH   1   2
HETATM    2  C   UNK     0     161.670 161.590 158.578  0.00  0.00     0.011 C 
BRANCH   2   3
HETATM    3  C   UNK     0     162.775 160.862 157.791  0.00  0.00     0.001 C 
HETATM    4  C   UNK     0     164.186 160.727 158.391  0.00  0.00     0.000 C 
ENDBRANCH   2   3
ENDBRANCH   1   2
BRANCH   1   5
HETATM    5  C   UNK     0     160.568 160.009 160.422  0.00  0.00     0.011 C 
BRANCH   5   6
HETATM    6  C   UNK     0     159.552 160.091 161.578  0.00  0.00     0.001 C 
HETATM    7  C   UNK     0     158.752 158.841 161.988  0.00  0.00     0.000 C 
ENDBRANCH   5   6
ENDBRANCH   1   5
BRANCH   1   8
HETATM    8  C   UNK     0     162.018 162.119 161.169  0.00  0.00     0.185 C 
HETATM    9  O   UNK     0     161.133 163.147 161.899  0.00  0.00    -0.647 OA
HETATM   10  O   UNK     0     163.502 161.971 161.552  0.00  0.00    -0.647 OA
ENDBRANCH   1   8
TORSDOF 5
ENDMDL
MODEL 2
REMARK VINA RESULT:      -4.3     46.743     48.491
REMARK  5 active torsions:
REMARK  status: ('A' for Active; 'I' for Inactive)
REMARK    1  A    between atoms: C_2  and  C_3 
REMARK    2  A    between atoms: C_3  and  C_4 
REMARK    3  A    between atoms: C_4  and  C_8 
REMARK    4  A    between atoms: C_4  and  C_5 
REMARK    5  A    between atoms: C_6  and  C_8 
ROOT
HETATM    1  C   UNK     0     150.835 114.648 154.678  0.00  0.00     0.087 C 
ENDROOT
BRANCH   1   2
HETATM    2  C   UNK     0     151.908 113.548 154.774  0.00  0.00     0.011 C 
BRANCH   2   3
HETATM    3  C   UNK     0     151.631 112.271 155.589  0.00  0.00     0.001 C 
HETATM    4  C   UNK     0     150.468 112.238 156.597  0.00  0.00     0.000 C 
ENDBRANCH   2   3
ENDBRANCH   1   2
BRANCH   1   5
HETATM    5  C   UNK     0     149.729 114.553 153.610  0.00  0.00     0.011 C 
BRANCH   5   6
HETATM    6  C   UNK     0     148.335 114.020 153.990  0.00  0.00     0.001 C 
HETATM    7  C   UNK     0     147.987 112.539 153.752  0.00  0.00     0.000 C 
ENDBRANCH   5   6
ENDBRANCH   1   5
BRANCH   1   8
HETATM    8  C   UNK     0     150.867 115.843 155.648  0.00  0.00     0.185 C 
HETATM    9  O   UNK     0     152.051 116.014 156.619  0.00  0.00    -0.647 OA
HETATM   10  O   UNK     0     149.716 116.866 155.650  0.00  0.00    -0.647 OA
ENDBRANCH   1   8
TORSDOF 5
ENDMDL
MODEL 3
REMARK VINA RESULT:      -4.3     49.362     50.644
REMARK  5 active torsions:
REMARK  status: ('A' for Active; 'I' for Inactive)
REMARK    1  A    between atoms: C_2  and  C_3 
REMARK    2  A    between atoms: C_3  and  C_4 
REMARK    3  A    between atoms: C_4  and  C_8 
REMARK    4  A    between atoms: C_4  and  C_5 
REMARK    5  A    between atoms: C_6  and  C_8 
ROOT
HETATM    1  C   UNK     0     147.429 146.794 113.992  0.00  0.00     0.087 C 
ENDROOT
BRANCH   1   2
HETATM    2  C   UNK     0     148.099 147.989 114.697  0.00  0.00     0.011 C 
BRANCH   2   3
HETATM    3  C   UNK     0     149.196 147.746 115.750  0.00  0.00     0.001 C 
HETATM    4  C   UNK     0     150.655 147.537 115.307  0.00  0.00     0.000 C 
ENDBRANCH   2   3
ENDBRANCH   1   2
BRANCH   1   5
HETATM    5  C   UNK     0     147.899 146.366 112.589  0.00  0.00     0.011 C 
BRANCH   5   6
HETATM    6  C   UNK     0     147.039 146.697 111.355  0.00  0.00     0.001 C 
HETATM    7  C   UNK     0     145.714 147.463 111.523  0.00  0.00     0.000 C 
ENDBRANCH   5   6
ENDBRANCH   1   5
BRANCH   1   8
HETATM    8  C   UNK     0     146.290 146.028 114.690  0.00  0.00     0.185 C 
HETATM    9  O   UNK     0     145.102 146.799 115.294  0.00  0.00    -0.647 OA
HETATM   10  O   UNK     0     146.340 144.492 114.784  0.00  0.00    -0.647 OA
ENDBRANCH   1   8
TORSDOF 5
ENDMDL
MODEL 4
REMARK VINA RESULT:      -4.3     50.754     52.573
REMARK  5 active torsions:
REMARK  status: ('A' for Active; 'I' for Inactive)
REMARK    1  A    between atoms: C_2  and  C_3 
REMARK    2  A    between atoms: C_3  and  C_4 
REMARK    3  A    between atoms: C_4  and  C_8 
REMARK    4  A    between atoms: C_4  and  C_5 
REMARK    5  A    between atoms: C_6  and  C_8 
ROOT
HETATM    1  C   UNK     0     144.867 122.525 191.439  0.00  0.00     0.087 C 
ENDROOT
BRANCH   1   2
HETATM    2  C   UNK     0     146.069 122.695 192.387  0.00  0.00     0.011 C 
BRANCH   2   3
HETATM    3  C   UNK     0     146.559 121.504 193.232  0.00  0.00     0.001 C 
HETATM    4  C   UNK     0     148.046 121.391 193.613  0.00  0.00     0.000 C 
ENDBRANCH   2   3
ENDBRANCH   1   2
BRANCH   1   5
HETATM    5  C   UNK     0     144.034 121.231 191.477  0.00  0.00     0.011 C 
BRANCH   5   6
HETATM    6  C   UNK     0     142.658 121.221 192.171  0.00  0.00     0.001 C 
HETATM    7  C   UNK     0     142.150 122.483 192.892  0.00  0.00     0.000 C 
ENDBRANCH   5   6
ENDBRANCH   1   5
BRANCH   1   8
HETATM    8  C   UNK     0     144.499 123.649 190.453  0.00  0.00     0.185 C 
HETATM    9  O   UNK     0     145.481 124.811 190.209  0.00  0.00    -0.647 OA
HETATM   10  O   UNK     0     143.150 123.612 189.712  0.00  0.00    -0.647 OA
ENDBRANCH   1   8
TORSDOF 5
ENDMDL
MODEL 5
REMARK VINA RESULT:      -4.2     58.460     59.102
REMARK  5 active torsions:
REMARK  status: ('A' for Active; 'I' for Inactive)
REMARK    1  A    between atoms: C_2  and  C_3 
REMARK    2  A    between atoms: C_3  and  C_4 
REMARK    3  A    between atoms: C_4  and  C_8 
REMARK    4  A    between atoms: C_4  and  C_5 
REMARK    5  A    between atoms: C_6  and  C_8 
ROOT
HETATM    1  C   UNK     0     129.835 134.954 118.565  0.00  0.00     0.087 C 
ENDROOT
BRANCH   1   2
HETATM    2  C   UNK     0     130.874 134.466 119.592  0.00  0.00     0.011 C 
BRANCH   2   3
HETATM    3  C   UNK     0     131.556 133.098 119.408  0.00  0.00     0.001 C 
HETATM    4  C   UNK     0     132.371 132.810 118.134  0.00  0.00     0.000 C 
ENDBRANCH   2   3
ENDBRANCH   1   2
BRANCH   1   5
HETATM    5  C   UNK     0     128.413 134.363 118.569  0.00  0.00     0.011 C 
BRANCH   5   6
HETATM    6  C   UNK     0     128.143 133.001 117.902  0.00  0.00     0.001 C 
HETATM    7  C   UNK     0     128.950 132.579 116.660  0.00  0.00     0.000 C 
ENDBRANCH   5   6
ENDBRANCH   1   5
BRANCH   1   8
HETATM    8  C   UNK     0     130.218 136.032 117.535  0.00  0.00     0.185 C 
HETATM    9  O   UNK     0     129.753 137.487 117.734  0.00  0.00    -0.647 OA
HETATM   10  O   UNK     0     131.066 135.656 116.306  0.00  0.00    -0.647 OA
ENDBRANCH   1   8
TORSDOF 5
ENDMDL
MODEL 6
REMARK VINA RESULT:      -4.2     46.673     48.428
REMARK  5 active torsions:
REMARK  status: ('A' for Active; 'I' for Inactive)
REMARK    1  A    between atoms: C_2  and  C_3 
REMARK    2  A    between atoms: C_3  and  C_4 
REMARK    3  A    between atoms: C_4  and  C_8 
REMARK    4  A    between atoms: C_4  and  C_5 
REMARK    5  A    between atoms: C_6  and  C_8 
ROOT
HETATM    1  C   UNK     0     150.364 114.809 154.683  0.00  0.00     0.087 C 
ENDROOT
BRANCH   1   2
HETATM    2  C   UNK     0     148.904 114.609 154.235  0.00  0.00     0.011 C 
BRANCH   2   3
HETATM    3  C   UNK     0     148.523 113.394 153.369  0.00  0.00     0.001 C 
HETATM    4  C   UNK     0     147.042 113.092 153.075  0.00  0.00     0.000 C 
ENDBRANCH   2   3
ENDBRANCH   1   2
BRANCH   1   5
HETATM    5  C   UNK     0     151.415 113.724 154.384  0.00  0.00     0.011 C 
BRANCH   5   6
HETATM    6  C   UNK     0     151.659 112.588 155.396  0.00  0.00     0.001 C 
HETATM    7  C   UNK     0     150.617 112.296 156.491  0.00  0.00     0.000 C 
ENDBRANCH   5   6
ENDBRANCH   1   5
BRANCH   1   8
HETATM    8  C   UNK     0     150.771 116.091 155.430  0.00  0.00     0.185 C 
HETATM    9  O   UNK     0     150.121 117.438 155.059  0.00  0.00    -0.647 OA
HETATM   10  O   UNK     0     151.828 116.029 156.548  0.00  0.00    -0.647 OA
ENDBRANCH   1   8
TORSDOF 5
ENDMDL
MODEL 7
REMARK VINA RESULT:      -4.2      7.681      9.170
REMARK  5 active torsions:
REMARK  status: ('A' for Active; 'I' for Inactive)
REMARK    1  A    between atoms: C_2  and  C_3 
REMARK    2  A    between atoms: C_3  and  C_4 
REMARK    3  A    between atoms: C_4  and  C_8 
REMARK    4  A    between atoms: C_4  and  C_5 
REMARK    5  A    between atoms: C_6  and  C_8 
ROOT
HETATM    1  C   UNK     0     162.529 169.335 162.006  0.00  0.00     0.087 C 
ENDROOT
BRANCH   1   2
HETATM    2  C   UNK     0     163.649 169.921 162.886  0.00  0.00     0.011 C 
BRANCH   2   3
HETATM    3  C   UNK     0     165.117 169.820 162.434  0.00  0.00     0.001 C 
HETATM    4  C   UNK     0     166.143 170.865 162.908  0.00  0.00     0.000 C 
ENDBRANCH   2   3
ENDBRANCH   1   2
BRANCH   1   5
HETATM    5  C   UNK     0     161.406 170.248 161.480  0.00  0.00     0.011 C 
BRANCH   5   6
HETATM    6  C   UNK     0     160.593 171.113 162.461  0.00  0.00     0.001 C 
HETATM    7  C   UNK     0     159.720 170.443 163.538  0.00  0.00     0.000 C 
ENDBRANCH   5   6
ENDBRANCH   1   5
BRANCH   1   8
HETATM    8  C   UNK     0     162.533 167.837 161.652  0.00  0.00     0.185 C 
HETATM    9  O   UNK     0     161.418 166.917 162.184  0.00  0.00    -0.647 OA
HETATM   10  O   UNK     0     163.652 167.257 160.767  0.00  0.00    -0.647 OA
ENDBRANCH   1   8
TORSDOF 5
ENDMDL
MODEL 8
REMARK VINA RESULT:      -4.2     49.331     50.994
REMARK  5 active torsions:
REMARK  status: ('A' for Active; 'I' for Inactive)
REMARK    1  A    between atoms: C_2  and  C_3 
REMARK    2  A    between atoms: C_3  and  C_4 
REMARK    3  A    between atoms: C_4  and  C_8 
REMARK    4  A    between atoms: C_4  and  C_5 
REMARK    5  A    between atoms: C_6  and  C_8 
ROOT
HETATM    1  C   UNK     0     115.504 141.387 169.044  0.00  0.00     0.087 C 
ENDROOT
BRANCH   1   2
HETATM    2  C   UNK     0     116.963 141.803 168.780  0.00  0.00     0.011 C 
BRANCH   2   3
HETATM    3  C   UNK     0     117.839 140.975 167.822  0.00  0.00     0.001 C 
HETATM    4  C   UNK     0     117.181 140.087 166.750  0.00  0.00     0.000 C 
ENDBRANCH   2   3
ENDBRANCH   1   2
BRANCH   1   5
HETATM    5  C   UNK     0     114.352 142.127 168.340  0.00  0.00     0.011 C 
BRANCH   5   6
HETATM    6  C   UNK     0     114.130 143.630 168.598  0.00  0.00     0.001 C 
HETATM    7  C   UNK     0     112.700 144.187 168.722  0.00  0.00     0.000 C 
ENDBRANCH   5   6
ENDBRANCH   1   5
BRANCH   1   8
HETATM    8  C   UNK     0     115.197 140.229 170.012  0.00  0.00     0.185 C 
HETATM    9  O   UNK     0     114.029 140.348 171.009  0.00  0.00    -0.647 OA
HETATM   10  O   UNK     0     116.059 138.953 169.984  0.00  0.00    -0.647 OA
ENDBRANCH   1   8
TORSDOF 5
ENDMDL
MODEL 9
REMARK VINA RESULT:      -4.1     48.865     50.670
REMARK  5 active torsions:
REMARK  status: ('A' for Active; 'I' for Inactive)
REMARK    1  A    between atoms: C_2  and  C_3 
REMARK    2  A    between atoms: C_3  and  C_4 
REMARK    3  A    between atoms: C_4  and  C_8 
REMARK    4  A    between atoms: C_4  and  C_5 
REMARK    5  A    between atoms: C_6  and  C_8 
ROOT
HETATM    1  C   UNK     0     148.911 112.744 154.351  0.00  0.00     0.087 C 
ENDROOT
BRANCH   1   2
HETATM    2  C   UNK     0     147.612 112.011 153.965  0.00  0.00     0.011 C 
BRANCH   2   3
HETATM    3  C   UNK     0     147.324 110.607 154.528  0.00  0.00     0.001 C 
HETATM    4  C   UNK     0     148.020 109.376 153.921  0.00  0.00     0.000 C 
ENDBRANCH   2   3
ENDBRANCH   1   2
BRANCH   1   5
HETATM    5  C   UNK     0     149.284 114.066 153.655  0.00  0.00     0.011 C 
BRANCH   5   6
HETATM    6  C   UNK     0     150.643 114.732 153.945  0.00  0.00     0.001 C 
HETATM    7  C   UNK     0     151.848 114.455 153.027  0.00  0.00     0.000 C 
ENDBRANCH   5   6
ENDBRANCH   1   5
BRANCH   1   8
HETATM    8  C   UNK     0     149.835 112.155 155.433  0.00  0.00     0.185 C 
HETATM    9  O   UNK     0     151.113 111.399 155.025  0.00  0.00    -0.647 OA
HETATM   10  O   UNK     0     149.481 112.322 156.922  0.00  0.00    -0.647 OA
ENDBRANCH   1   8
TORSDOF 5
ENDMDL
MODEL 10
REMARK VINA RESULT:      -4.0      4.335      5.850
REMARK  5 active torsions:
REMARK  status: ('A' for Active; 'I' for Inactive)
REMARK    1  A    between atoms: C_2  and  C_3 
REMARK    2  A    between atoms: C_3  and  C_4 
REMARK    3  A    between atoms: C_4  and  C_8 
REMARK    4  A    between atoms: C_4  and  C_5 
REMARK    5  A    between atoms: C_6  and  C_8 
ROOT
HETATM    1  C   UNK     0     163.191 160.406 155.437  0.00  0.00     0.087 C 
ENDROOT
BRANCH   1   2
HETATM    2  C   UNK     0     163.286 161.605 154.475  0.00  0.00     0.011 C 
BRANCH   2   3
HETATM    3  C   UNK     0     163.513 163.023 155.031  0.00  0.00     0.001 C 
HETATM    4  C   UNK     0     163.879 164.175 154.076  0.00  0.00     0.000 C 
ENDBRANCH   2   3
ENDBRANCH   1   2
BRANCH   1   5
HETATM    5  C   UNK     0     164.421 159.982 156.262  0.00  0.00     0.011 C 
BRANCH   5   6
HETATM    6  C   UNK     0     164.727 160.679 157.601  0.00  0.00     0.001 C 
HETATM    7  C   UNK     0     163.599 160.915 158.622  0.00  0.00     0.000 C 
ENDBRANCH   5   6
ENDBRANCH   1   5
BRANCH   1   8
HETATM    8  C   UNK     0     161.868 159.633 155.575  0.00  0.00     0.185 C 
HETATM    9  O   UNK     0     160.714 159.900 154.590  0.00  0.00    -0.647 OA
HETATM   10  O   UNK     0     161.697 158.591 156.697  0.00  0.00    -0.647 OA
ENDBRANCH   1   8
TORSDOF 5
ENDMDL
