MODEL 1
REMARK VINA RESULT:     -11.7      0.000      0.000
REMARK  0 active torsions:
REMARK  status: ('A' for Active; 'I' for Inactive)
REMARK       I    between atoms: N_2  and  C_14 
ROOT
HETATM    1  O   UNK     0     143.465 110.439 168.500  0.00  0.00    -0.154 OA
HETATM    2  N   UNK     0     143.213 112.849 169.329  0.00  0.00    -0.283 N 
HETATM    3  N   UNK     0     144.685 111.198 170.620  0.00  0.00    -0.053 NA
HETATM    4  C   UNK     0     142.329 113.042 168.160  0.00  0.00     0.040 A 
HETATM    5  C   UNK     0     143.599 113.831 170.366  0.00  0.00     0.040 A 
HETATM    6  C   UNK     0     141.612 114.264 167.738  0.00  0.00    -0.010 A 
HETATM    7  C   UNK     0     143.194 115.248 170.488  0.00  0.00    -0.010 A 
HETATM    8  C   UNK     0     141.602 115.596 168.381  0.00  0.00    -0.003 A 
HETATM    9  C   UNK     0     142.306 116.033 169.605  0.00  0.00    -0.003 A 
HETATM   10  C   UNK     0     142.213 111.738 167.350  0.00  0.00     0.044 A 
HETATM   11  C   UNK     0     144.542 113.186 171.397  0.00  0.00     0.044 A 
HETATM   12  C   UNK     0     140.730 114.267 166.476  0.00  0.00     0.028 A 
HETATM   13  C   UNK     0     143.707 116.117 171.652  0.00  0.00     0.028 A 
HETATM   14  C   UNK     0     143.788 111.495 169.483  0.00  0.00     0.271 C 
HETATM   15  C   UNK     0     141.338 111.706 166.082  0.00  0.00     0.007 A 
HETATM   16  C   UNK     0     145.073 114.027 172.573  0.00  0.00     0.007 A 
HETATM   17  C   UNK     0     140.592 112.980 165.643  0.00  0.00     0.005 A 
HETATM   18  C   UNK     0     144.652 115.504 172.701  0.00  0.00     0.005 A 
ENDROOT
TORSDOF 0
ENDMDL
MODEL 2
REMARK VINA RESULT:     -11.1     24.698     26.408
REMARK  0 active torsions:
REMARK  status: ('A' for Active; 'I' for Inactive)
REMARK       I    between atoms: N_2  and  C_14 
ROOT
HETATM    1  O   UNK     0     154.802 138.697 167.124  0.00  0.00    -0.154 OA
HETATM    2  N   UNK     0     152.647 137.714 166.151  0.00  0.00    -0.283 N 
HETATM    3  N   UNK     0     154.881 137.337 164.956  0.00  0.00    -0.053 NA
HETATM    4  C   UNK     0     151.972 138.335 167.310  0.00  0.00     0.040 A 
HETATM    5  C   UNK     0     152.054 136.919 165.054  0.00  0.00     0.040 A 
HETATM    6  C   UNK     0     150.535 138.312 167.660  0.00  0.00    -0.010 A 
HETATM    7  C   UNK     0     150.638 136.547 164.848  0.00  0.00    -0.010 A 
HETATM    8  C   UNK     0     149.420 137.665 166.937  0.00  0.00    -0.003 A 
HETATM    9  C   UNK     0     149.465 136.879 165.686  0.00  0.00    -0.003 A 
HETATM   10  C   UNK     0     152.990 139.071 168.199  0.00  0.00     0.044 A 
HETATM   11  C   UNK     0     153.141 136.473 164.060  0.00  0.00     0.044 A 
HETATM   12  C   UNK     0     150.019 139.025 168.924  0.00  0.00     0.028 A 
HETATM   13  C   UNK     0     150.212 135.704 163.631  0.00  0.00     0.028 A 
HETATM   14  C   UNK     0     154.111 137.916 166.077  0.00  0.00     0.271 C 
HETATM   15  C   UNK     0     152.508 139.795 169.470  0.00  0.00     0.007 A 
HETATM   16  C   UNK     0     152.749 135.629 162.833  0.00  0.00     0.007 A 
HETATM   17  C   UNK     0     151.011 139.771 169.835  0.00  0.00     0.005 A 
HETATM   18  C   UNK     0     151.274 135.242 162.617  0.00  0.00     0.005 A 
ENDROOT
TORSDOF 0
ENDMDL
MODEL 3
REMARK VINA RESULT:     -10.9     39.866     41.604
REMARK  0 active torsions:
REMARK  status: ('A' for Active; 'I' for Inactive)
REMARK       I    between atoms: N_2  and  C_14 
ROOT
HETATM    1  O   UNK     0     108.039 141.094 167.527  0.00  0.00    -0.154 OA
HETATM    2  N   UNK     0     109.865 139.668 168.620  0.00  0.00    -0.283 N 
HETATM    3  N   UNK     0     107.710 140.192 169.901  0.00  0.00    -0.053 NA
HETATM    4  C   UNK     0     110.611 139.855 167.358  0.00  0.00     0.040 A 
HETATM    5  C   UNK     0     110.268 138.917 169.829  0.00  0.00     0.040 A 
HETATM    6  C   UNK     0     111.947 139.337 166.992  0.00  0.00    -0.010 A 
HETATM    7  C   UNK     0     111.520 138.168 170.072  0.00  0.00    -0.010 A 
HETATM    8  C   UNK     0     112.866 138.505 167.798  0.00  0.00    -0.003 A 
HETATM    9  C   UNK     0     112.676 137.984 169.168  0.00  0.00    -0.003 A 
HETATM   10  C   UNK     0     109.800 140.714 166.372  0.00  0.00     0.044 A 
HETATM   11  C   UNK     0     109.170 138.994 170.905  0.00  0.00     0.044 A 
HETATM   12  C   UNK     0     112.563 139.643 165.615  0.00  0.00     0.028 A 
HETATM   13  C   UNK     0     111.758 137.443 171.410  0.00  0.00     0.028 A 
HETATM   14  C   UNK     0     108.538 140.318 168.683  0.00  0.00     0.271 C 
HETATM   15  C   UNK     0     110.387 141.039 164.985  0.00  0.00     0.007 A 
HETATM   16  C   UNK     0     109.377 138.280 172.254  0.00  0.00     0.007 A 
HETATM   17  C   UNK     0     111.778 140.500 164.604  0.00  0.00     0.005 A 
HETATM   18  C   UNK     0     110.680 137.499 172.508  0.00  0.00     0.005 A 
ENDROOT
TORSDOF 0
ENDMDL
MODEL 4
REMARK VINA RESULT:     -10.8     40.419     42.196
REMARK  0 active torsions:
REMARK  status: ('A' for Active; 'I' for Inactive)
REMARK       I    between atoms: N_2  and  C_14 
ROOT
HETATM    1  O   UNK     0     132.482 156.529 164.171  0.00  0.00    -0.154 OA
HETATM    2  N   UNK     0     131.680 154.553 165.589  0.00  0.00    -0.283 N 
HETATM    3  N   UNK     0     131.565 156.933 166.528  0.00  0.00    -0.053 NA
HETATM    4  C   UNK     0     132.058 153.714 164.432  0.00  0.00     0.040 A 
HETATM    5  C   UNK     0     131.103 154.134 166.885  0.00  0.00     0.040 A 
HETATM    6  C   UNK     0     131.952 152.246 164.285  0.00  0.00    -0.010 A 
HETATM    7  C   UNK     0     130.762 152.770 167.342  0.00  0.00    -0.010 A 
HETATM    8  C   UNK     0     131.442 151.256 165.258  0.00  0.00    -0.003 A 
HETATM    9  C   UNK     0     130.913 151.489 166.619  0.00  0.00    -0.003 A 
HETATM   10  C   UNK     0     132.621 154.583 163.294  0.00  0.00     0.044 A 
HETATM   11  C   UNK     0     130.870 155.354 167.793  0.00  0.00     0.044 A 
HETATM   12  C   UNK     0     132.402 151.547 162.989  0.00  0.00     0.028 A 
HETATM   13  C   UNK     0     130.163 152.533 168.742  0.00  0.00     0.028 A 
HETATM   14  C   UNK     0     131.909 156.006 165.429  0.00  0.00     0.271 C 
HETATM   15  C   UNK     0     133.081 153.916 161.984  0.00  0.00     0.007 A 
HETATM   16  C   UNK     0     130.273 155.153 169.198  0.00  0.00     0.007 A 
HETATM   17  C   UNK     0     132.971 152.387 161.831  0.00  0.00     0.005 A 
HETATM   18  C   UNK     0     129.917 153.732 169.676  0.00  0.00     0.005 A 
ENDROOT
TORSDOF 0
ENDMDL
MODEL 5
REMARK VINA RESULT:     -10.8     40.555     42.480
REMARK  0 active torsions:
REMARK  status: ('A' for Active; 'I' for Inactive)
REMARK       I    between atoms: N_2  and  C_14 
ROOT
HETATM    1  O   UNK     0     131.604 157.044 166.653  0.00  0.00    -0.154 OA
HETATM    2  N   UNK     0     131.646 154.648 165.748  0.00  0.00    -0.283 N 
HETATM    3  N   UNK     0     132.498 156.581 164.299  0.00  0.00    -0.053 NA
HETATM    4  C   UNK     0     131.064 154.264 167.051  0.00  0.00     0.040 A 
HETATM    5  C   UNK     0     131.995 153.782 164.601  0.00  0.00     0.040 A 
HETATM    6  C   UNK     0     130.686 152.917 167.530  0.00  0.00    -0.010 A 
HETATM    7  C   UNK     0     131.847 152.316 164.476  0.00  0.00    -0.010 A 
HETATM    8  C   UNK     0     130.797 151.622 166.824  0.00  0.00    -0.003 A 
HETATM    9  C   UNK     0     131.314 151.355 165.465  0.00  0.00    -0.003 A 
HETATM   10  C   UNK     0     130.870 155.503 167.943  0.00  0.00     0.044 A 
HETATM   11  C   UNK     0     132.578 154.619 163.448  0.00  0.00     0.044 A 
HETATM   12  C   UNK     0     130.088 152.717 168.935  0.00  0.00     0.028 A 
HETATM   13  C   UNK     0     132.272 151.587 163.187  0.00  0.00     0.028 A 
HETATM   14  C   UNK     0     131.916 156.091 165.567  0.00  0.00     0.271 C 
HETATM   15  C   UNK     0     130.273 155.338 169.354  0.00  0.00     0.007 A 
HETATM   16  C   UNK     0     133.012 153.921 162.146  0.00  0.00     0.007 A 
HETATM   17  C   UNK     0     129.880 153.935 169.853  0.00  0.00     0.005 A 
HETATM   18  C   UNK     0     132.858 152.394 162.015  0.00  0.00     0.005 A 
ENDROOT
TORSDOF 0
ENDMDL
MODEL 6
REMARK VINA RESULT:     -10.4      1.561      5.339
REMARK  0 active torsions:
REMARK  status: ('A' for Active; 'I' for Inactive)
REMARK       I    between atoms: N_2  and  C_14 
ROOT
HETATM    1  O   UNK     0     145.010 110.266 170.679  0.00  0.00    -0.154 OA
HETATM    2  N   UNK     0     144.245 112.708 170.766  0.00  0.00    -0.283 N 
HETATM    3  N   UNK     0     143.493 111.198 168.838  0.00  0.00    -0.053 NA
HETATM    4  C   UNK     0     145.032 112.794 172.014  0.00  0.00     0.040 A 
HETATM    5  C   UNK     0     143.454 113.765 170.098  0.00  0.00     0.040 A 
HETATM    6  C   UNK     0     145.223 113.960 172.905  0.00  0.00    -0.010 A 
HETATM    7  C   UNK     0     143.255 115.169 170.517  0.00  0.00    -0.010 A 
HETATM    8  C   UNK     0     144.673 115.325 172.767  0.00  0.00    -0.003 A 
HETATM    9  C   UNK     0     143.798 115.864 171.704  0.00  0.00    -0.003 A 
HETATM   10  C   UNK     0     145.694 111.441 172.331  0.00  0.00     0.044 A 
HETATM   11  C   UNK     0     142.798 113.222 168.816  0.00  0.00     0.044 A 
HETATM   12  C   UNK     0     146.088 113.851 174.173  0.00  0.00     0.028 A 
HETATM   13  C   UNK     0     142.387 116.127 169.680  0.00  0.00     0.028 A 
HETATM   14  C   UNK     0     144.249 111.390 170.094  0.00  0.00     0.271 C 
HETATM   15  C   UNK     0     146.566 111.298 173.592  0.00  0.00     0.007 A 
HETATM   16  C   UNK     0     141.924 114.153 167.957  0.00  0.00     0.007 A 
HETATM   17  C   UNK     0     146.765 112.512 174.520  0.00  0.00     0.005 A 
HETATM   18  C   UNK     0     141.716 115.616 168.392  0.00  0.00     0.005 A 
ENDROOT
TORSDOF 0
ENDMDL
MODEL 7
REMARK VINA RESULT:     -10.4     25.338     27.467
REMARK  0 active torsions:
REMARK  status: ('A' for Active; 'I' for Inactive)
REMARK       I    between atoms: N_2  and  C_14 
ROOT
HETATM    1  O   UNK     0     155.699 138.723 167.254  0.00  0.00    -0.154 OA
HETATM    2  N   UNK     0     153.152 138.538 167.451  0.00  0.00    -0.283 N 
HETATM    3  N   UNK     0     154.360 137.505 165.442  0.00  0.00    -0.053 NA
HETATM    4  C   UNK     0     153.306 139.294 168.712  0.00  0.00     0.040 A 
HETATM    5  C   UNK     0     151.913 138.027 166.827  0.00  0.00     0.040 A 
HETATM    6  C   UNK     0     152.258 139.726 169.662  0.00  0.00    -0.010 A 
HETATM    7  C   UNK     0     150.521 138.146 167.312  0.00  0.00    -0.010 A 
HETATM    8  C   UNK     0     150.797 139.508 169.584  0.00  0.00    -0.003 A 
HETATM    9  C   UNK     0     150.025 138.805 168.538  0.00  0.00    -0.003 A 
HETATM   10  C   UNK     0     154.788 139.619 168.970  0.00  0.00     0.044 A 
HETATM   11  C   UNK     0     152.232 137.295 165.511  0.00  0.00     0.044 A 
HETATM   12  C   UNK     0     152.620 140.513 170.934  0.00  0.00     0.028 A 
HETATM   13  C   UNK     0     149.352 137.540 166.512  0.00  0.00     0.028 A 
HETATM   14  C   UNK     0     154.404 138.256 166.716  0.00  0.00     0.271 C 
HETATM   15  C   UNK     0     155.186 140.406 170.234  0.00  0.00     0.007 A 
HETATM   16  C   UNK     0     151.087 136.678 164.687  0.00  0.00     0.007 A 
HETATM   17  C   UNK     0     154.093 140.855 171.222  0.00  0.00     0.005 A 
HETATM   18  C   UNK     0     149.636 136.801 165.191  0.00  0.00     0.005 A 
ENDROOT
TORSDOF 0
ENDMDL
MODEL 8
REMARK VINA RESULT:      -9.7     40.305     42.028
REMARK  0 active torsions:
REMARK  status: ('A' for Active; 'I' for Inactive)
REMARK       I    between atoms: N_2  and  C_14 
ROOT
HETATM    1  O   UNK     0     108.451 140.036 167.576  0.00  0.00    -0.154 OA
HETATM    2  N   UNK     0     109.169 139.204 169.889  0.00  0.00    -0.283 N 
HETATM    3  N   UNK     0     106.923 140.401 169.598  0.00  0.00    -0.053 NA
HETATM    4  C   UNK     0     110.392 138.721 169.213  0.00  0.00     0.040 A 
HETATM    5  C   UNK     0     108.802 139.100 171.318  0.00  0.00     0.040 A 
HETATM    6  C   UNK     0     111.552 138.015 169.799  0.00  0.00    -0.010 A 
HETATM    7  C   UNK     0     109.570 138.488 172.423  0.00  0.00    -0.010 A 
HETATM    8  C   UNK     0     111.774 137.617 171.206  0.00  0.00    -0.003 A 
HETATM    9  C   UNK     0     110.892 137.828 172.374  0.00  0.00    -0.003 A 
HETATM   10  C   UNK     0     110.345 139.049 167.710  0.00  0.00     0.044 A 
HETATM   11  C   UNK     0     107.428 139.745 171.571  0.00  0.00     0.044 A 
HETATM   12  C   UNK     0     112.743 137.589 168.922  0.00  0.00     0.028 A 
HETATM   13  C   UNK     0     109.014 138.478 173.860  0.00  0.00     0.028 A 
HETATM   14  C   UNK     0     108.181 139.880 169.020  0.00  0.00     0.271 C 
HETATM   15  C   UNK     0     111.521 138.637 166.804  0.00  0.00     0.007 A 
HETATM   16  C   UNK     0     106.843 139.753 172.996  0.00  0.00     0.007 A 
HETATM   17  C   UNK     0     112.728 137.901 167.415  0.00  0.00     0.005 A 
HETATM   18  C   UNK     0     107.642 139.115 174.148  0.00  0.00     0.005 A 
ENDROOT
TORSDOF 0
ENDMDL
