MODEL 1
REMARK VINA RESULT:      -8.0      0.000      0.000
REMARK  9 active torsions:
REMARK  status: ('A' for Active; 'I' for Inactive)
REMARK    1  A    between atoms: C_3  and  C_21 
REMARK    2  A    between atoms: C_4  and  C_14 
REMARK    3  A    between atoms: C_7  and  N_9 
REMARK       I    between atoms: N_9  and  C_10 
REMARK    4  A    between atoms: C_10  and  C_13 
REMARK    5  A    between atoms: C_13  and  C_15 
REMARK    6  A    between atoms: C_13  and  N_20 
REMARK    7  A    between atoms: C_14  and  S_24 
REMARK    8  A    between atoms: N_20  and  O_35 
REMARK    9  A    between atoms: S_24  and  C_25 
ROOT
HETATM    1  C   UNK     0     148.694 153.496 114.105  0.00  0.00     0.308 A 
HETATM    2  N   UNK     0     148.062 154.563 114.881  0.00  0.00    -0.297 N 
HETATM    3  C   UNK     0     147.985 156.021 114.263  0.00  0.00     0.121 A 
HETATM    4  C   UNK     0     148.560 156.306 112.887  0.00  0.00    -0.002 A 
HETATM    5  C   UNK     0     149.192 155.239 112.111  0.00  0.00     0.065 A 
HETATM    6  S   UNK     0     149.283 153.830 112.672  0.00  0.00    -0.194 SA
HETATM    7  C   UNK     0     148.409 152.499 115.244  0.00  0.00     0.125 A 
HETATM    8  C   UNK     0     147.777 153.567 116.020  0.00  0.00     0.211 A 
HETATM    9  O   UNK     0     147.202 153.282 117.397  0.00  0.00    -0.170 OA
ENDROOT
BRANCH   7  10
HETATM   10  N   UNK     0     148.500 151.091 115.805  0.00  0.00    -0.217 NA
HETATM   11  C   UNK     0     147.462 150.063 115.388  0.00  0.00     0.234 C 
HETATM   12  O   UNK     0     146.391 150.424 114.460  0.00  0.00    -0.167 OA
BRANCH  11  13
HETATM   13  C   UNK     0     147.553 148.654 115.948  0.00  0.00     0.165 C 
BRANCH  13  14
HETATM   14  C   UNK     0     146.709 148.240 117.225  0.00  0.00     0.091 A 
HETATM   15  C   UNK     0     146.893 149.180 118.431  0.00  0.00     0.108 A 
HETATM   16  S   UNK     0     146.004 148.618 119.556  0.00  0.00    -0.072 SA
HETATM   17  C   UNK     0     145.242 147.296 119.051  0.00  0.00     0.456 A 
HETATM   18  N   UNK     0     145.682 147.060 117.594  0.00  0.00    -0.229 NA
HETATM   19  N   UNK     0     144.262 146.436 119.870  0.00  0.00     0.656 N 
ENDBRANCH  13  14
BRANCH  13  20
HETATM   20  N   UNK     0     148.512 147.554 115.251  0.00  0.00    -0.126 NA
BRANCH  20  21
HETATM   21  O   UNK     0     149.348 147.921 114.009  0.00  0.00    -0.234 OA
HETATM   22  C   UNK     0     148.658 148.295 112.684  0.00  0.00     0.211 C 
ENDBRANCH  20  21
ENDBRANCH  13  20
ENDBRANCH  11  13
ENDBRANCH   7  10
BRANCH   3  23
HETATM   23  C   UNK     0     147.320 157.145 115.080  0.00  0.00     0.227 C 
HETATM   24  O   UNK     0     145.949 157.778 114.689  0.00  0.00    -0.643 OA
HETATM   25  O   UNK     0     148.051 157.691 116.377  0.00  0.00    -0.643 OA
ENDBRANCH   3  23
BRANCH   4  26
HETATM   26  C   UNK     0     148.436 157.771 112.367  0.00  0.00     0.089 C 
BRANCH  26  27
HETATM   27  S   UNK     0     148.023 157.946 110.916  0.00  0.00    -0.071 SA
BRANCH  27  28
HETATM   28  C   UNK     0     146.859 158.864 110.586  0.00  0.00     0.190 A 
HETATM   29  N   UNK     0     146.235 159.756 111.674  0.00  0.00    -0.192 NA
HETATM   30  C   UNK     0     145.071 160.674 111.344  0.00  0.00     0.260 A 
HETATM   31  C   UNK     0     144.480 160.726 109.873  0.00  0.00     0.274 A 
HETATM   32  O   UNK     0     144.446 161.566 112.432  0.00  0.00    -0.165 OA
HETATM   33  N   UNK     0     145.104 159.833 108.785  0.00  0.00    -0.136 NA
HETATM   34  O   UNK     0     143.316 161.643 109.543  0.00  0.00    -0.164 OA
HETATM   35  N   UNK     0     146.319 158.888 109.167  0.00  0.00    -0.225 N 
HETATM   36  C   UNK     0     146.943 157.995 108.078  0.00  0.00     0.156 C 
ENDBRANCH  27  28
ENDBRANCH  26  27
ENDBRANCH   4  26
TORSDOF 9
ENDMDL
MODEL 2
REMARK VINA RESULT:      -7.9     38.826     43.027
REMARK  9 active torsions:
REMARK  status: ('A' for Active; 'I' for Inactive)
REMARK    1  A    between atoms: C_3  and  C_21 
REMARK    2  A    between atoms: C_4  and  C_14 
REMARK    3  A    between atoms: C_7  and  N_9 
REMARK       I    between atoms: N_9  and  C_10 
REMARK    4  A    between atoms: C_10  and  C_13 
REMARK    5  A    between atoms: C_13  and  C_15 
REMARK    6  A    between atoms: C_13  and  N_20 
REMARK    7  A    between atoms: C_14  and  S_24 
REMARK    8  A    between atoms: N_20  and  O_35 
REMARK    9  A    between atoms: S_24  and  C_25 
ROOT
HETATM    1  C   UNK     0     162.986 116.061 118.651  0.00  0.00     0.308 A 
HETATM    2  N   UNK     0     162.474 116.617 119.904  0.00  0.00    -0.297 N 
HETATM    3  C   UNK     0     161.077 117.365 119.900  0.00  0.00     0.121 A 
HETATM    4  C   UNK     0     160.280 117.503 118.615  0.00  0.00    -0.002 A 
HETATM    5  C   UNK     0     160.791 116.947 117.362  0.00  0.00     0.065 A 
HETATM    6  S   UNK     0     162.126 116.223 117.329  0.00  0.00    -0.194 SA
HETATM    7  C   UNK     0     164.240 115.554 119.388  0.00  0.00     0.125 A 
HETATM    8  C   UNK     0     163.728 116.111 120.641  0.00  0.00     0.211 A 
HETATM    9  O   UNK     0     164.525 115.973 121.927  0.00  0.00    -0.170 OA
ENDROOT
BRANCH   7  10
HETATM   10  N   UNK     0     165.575 114.831 119.355  0.00  0.00    -0.217 NA
HETATM   11  C   UNK     0     165.891 113.919 118.183  0.00  0.00     0.234 C 
HETATM   12  O   UNK     0     164.923 113.739 117.101  0.00  0.00    -0.167 OA
BRANCH  11  13
HETATM   13  C   UNK     0     167.226 113.196 118.150  0.00  0.00     0.165 C 
BRANCH  13  14
HETATM   14  C   UNK     0     167.473 112.009 117.127  0.00  0.00     0.091 A 
HETATM   15  C   UNK     0     167.955 112.467 115.738  0.00  0.00     0.108 A 
HETATM   16  S   UNK     0     168.135 111.188 114.901  0.00  0.00    -0.072 SA
HETATM   17  C   UNK     0     167.760 109.893 115.778  0.00  0.00     0.456 A 
HETATM   18  N   UNK     0     167.345 110.407 117.170  0.00  0.00    -0.229 NA
HETATM   19  N   UNK     0     167.807 108.427 115.312  0.00  0.00     0.656 N 
ENDBRANCH  13  14
BRANCH  13  20
HETATM   20  N   UNK     0     168.416 113.625 119.157  0.00  0.00    -0.126 NA
BRANCH  20  21
HETATM   21  O   UNK     0     168.995 115.052 119.120  0.00  0.00    -0.234 OA
HETATM   22  C   UNK     0     169.301 115.736 117.774  0.00  0.00     0.211 C 
ENDBRANCH  20  21
ENDBRANCH  13  20
ENDBRANCH  11  13
ENDBRANCH   7  10
BRANCH   3  23
HETATM   23  C   UNK     0     160.538 117.951 121.219  0.00  0.00     0.227 C 
HETATM   24  O   UNK     0     160.647 119.464 121.581  0.00  0.00    -0.643 OA
HETATM   25  O   UNK     0     159.840 116.983 122.263  0.00  0.00    -0.643 OA
ENDBRANCH   3  23
BRANCH   4  26
HETATM   26  C   UNK     0     158.918 118.255 118.714  0.00  0.00     0.089 C 
BRANCH  26  27
HETATM   27  S   UNK     0     157.677 117.397 118.883  0.00  0.00    -0.071 SA
BRANCH  27  28
HETATM   28  C   UNK     0     157.568 116.096 118.107  0.00  0.00     0.190 A 
HETATM   29  N   UNK     0     157.264 116.111 116.597  0.00  0.00    -0.192 NA
HETATM   30  C   UNK     0     157.155 114.810 115.821  0.00  0.00     0.260 A 
HETATM   31  C   UNK     0     157.353 113.417 116.553  0.00  0.00     0.274 A 
HETATM   32  O   UNK     0     156.851 114.824 114.311  0.00  0.00    -0.165 OA
HETATM   33  N   UNK     0     157.657 113.403 118.063  0.00  0.00    -0.136 NA
HETATM   34  O   UNK     0     157.244 112.117 115.777  0.00  0.00    -0.164 OA
HETATM   35  N   UNK     0     157.763 114.781 118.840  0.00  0.00    -0.225 N 
HETATM   36  C   UNK     0     158.067 114.766 120.350  0.00  0.00     0.156 C 
ENDBRANCH  27  28
ENDBRANCH  26  27
ENDBRANCH   4  26
TORSDOF 9
ENDMDL
MODEL 3
REMARK VINA RESULT:      -7.8     25.721     28.146
REMARK  9 active torsions:
REMARK  status: ('A' for Active; 'I' for Inactive)
REMARK    1  A    between atoms: C_3  and  C_21 
REMARK    2  A    between atoms: C_4  and  C_14 
REMARK    3  A    between atoms: C_7  and  N_9 
REMARK       I    between atoms: N_9  and  C_10 
REMARK    4  A    between atoms: C_10  and  C_13 
REMARK    5  A    between atoms: C_13  and  C_15 
REMARK    6  A    between atoms: C_13  and  N_20 
REMARK    7  A    between atoms: C_14  and  S_24 
REMARK    8  A    between atoms: N_20  and  O_35 
REMARK    9  A    between atoms: S_24  and  C_25 
ROOT
HETATM    1  C   UNK     0     125.931 156.085 130.576  0.00  0.00     0.308 A 
HETATM    2  N   UNK     0     125.910 156.480 131.985  0.00  0.00    -0.297 N 
HETATM    3  C   UNK     0     127.234 157.052 132.644  0.00  0.00     0.121 A 
HETATM    4  C   UNK     0     128.506 157.187 131.825  0.00  0.00    -0.002 A 
HETATM    5  C   UNK     0     128.527 156.792 130.416  0.00  0.00     0.065 A 
HETATM    6  S   UNK     0     127.277 156.240 129.753  0.00  0.00    -0.194 SA
HETATM    7  C   UNK     0     124.448 155.681 130.668  0.00  0.00     0.125 A 
HETATM    8  C   UNK     0     124.427 156.076 132.076  0.00  0.00     0.211 A 
HETATM    9  O   UNK     0     123.155 155.941 132.895  0.00  0.00    -0.170 OA
ENDROOT
BRANCH   7  10
HETATM   10  N   UNK     0     123.198 155.129 130.004  0.00  0.00    -0.217 NA
HETATM   11  C   UNK     0     123.213 153.708 129.469  0.00  0.00     0.234 C 
HETATM   12  O   UNK     0     124.414 152.882 129.591  0.00  0.00    -0.167 OA
BRANCH  11  13
HETATM   13  C   UNK     0     121.963 153.156 128.806  0.00  0.00     0.165 C 
BRANCH  13  14
HETATM   14  C   UNK     0     121.102 154.064 127.832  0.00  0.00     0.091 A 
HETATM   15  C   UNK     0     121.175 153.644 126.352  0.00  0.00     0.108 A 
HETATM   16  S   UNK     0     120.285 154.634 125.578  0.00  0.00    -0.072 SA
HETATM   17  C   UNK     0     119.635 155.703 126.589  0.00  0.00     0.456 A 
HETATM   18  N   UNK     0     120.146 155.347 127.998  0.00  0.00    -0.229 NA
HETATM   19  N   UNK     0     118.687 156.856 126.215  0.00  0.00     0.656 N 
ENDBRANCH  13  14
BRANCH  13  20
HETATM   20  N   UNK     0     121.492 151.635 129.082  0.00  0.00    -0.126 NA
BRANCH  20  21
HETATM   21  O   UNK     0     121.767 150.530 128.044  0.00  0.00    -0.234 OA
HETATM   22  C   UNK     0     123.209 150.202 127.615  0.00  0.00     0.211 C 
ENDBRANCH  20  21
ENDBRANCH  13  20
ENDBRANCH  11  13
ENDBRANCH   7  10
BRANCH   3  23
HETATM   23  C   UNK     0     127.212 157.468 134.126  0.00  0.00     0.227 C 
HETATM   24  O   UNK     0     126.756 158.881 134.603  0.00  0.00    -0.643 OA
HETATM   25  O   UNK     0     127.671 156.423 135.227  0.00  0.00    -0.643 OA
ENDBRANCH   3  23
BRANCH   4  26
HETATM   26  C   UNK     0     129.755 157.759 132.562  0.00  0.00     0.089 C 
BRANCH  26  27
HETATM   27  S   UNK     0     130.342 159.046 132.009  0.00  0.00    -0.071 SA
BRANCH  27  28
HETATM   28  C   UNK     0     129.477 160.294 131.969  0.00  0.00     0.190 A 
HETATM   29  N   UNK     0     129.005 160.960 133.275  0.00  0.00    -0.192 NA
HETATM   30  C   UNK     0     128.140 162.208 133.234  0.00  0.00     0.260 A 
HETATM   31  C   UNK     0     127.711 162.844 131.847  0.00  0.00     0.274 A 
HETATM   32  O   UNK     0     127.668 162.873 134.540  0.00  0.00    -0.165 OA
HETATM   33  N   UNK     0     128.183 162.178 130.541  0.00  0.00    -0.136 NA
HETATM   34  O   UNK     0     126.846 164.091 131.806  0.00  0.00    -0.164 OA
HETATM   35  N   UNK     0     129.084 160.876 130.622  0.00  0.00    -0.225 N 
HETATM   36  C   UNK     0     129.556 160.210 129.316  0.00  0.00     0.156 C 
ENDBRANCH  27  28
ENDBRANCH  26  27
ENDBRANCH   4  26
TORSDOF 9
ENDMDL
MODEL 4
REMARK VINA RESULT:      -7.6     25.593     28.482
REMARK  9 active torsions:
REMARK  status: ('A' for Active; 'I' for Inactive)
REMARK    1  A    between atoms: C_3  and  C_21 
REMARK    2  A    between atoms: C_4  and  C_14 
REMARK    3  A    between atoms: C_7  and  N_9 
REMARK       I    between atoms: N_9  and  C_10 
REMARK    4  A    between atoms: C_10  and  C_13 
REMARK    5  A    between atoms: C_13  and  C_15 
REMARK    6  A    between atoms: C_13  and  N_20 
REMARK    7  A    between atoms: C_14  and  S_24 
REMARK    8  A    between atoms: N_20  and  O_35 
REMARK    9  A    between atoms: S_24  and  C_25 
ROOT
HETATM    1  C   UNK     0     125.386 156.553 131.630  0.00  0.00     0.308 A 
HETATM    2  N   UNK     0     125.208 157.427 132.790  0.00  0.00    -0.297 N 
HETATM    3  C   UNK     0     126.482 157.872 133.622  0.00  0.00     0.121 A 
HETATM    4  C   UNK     0     127.868 157.398 133.221  0.00  0.00    -0.002 A 
HETATM    5  C   UNK     0     128.046 156.524 132.061  0.00  0.00     0.065 A 
HETATM    6  S   UNK     0     126.848 156.078 131.242  0.00  0.00    -0.194 SA
HETATM    7  C   UNK     0     123.866 156.570 131.384  0.00  0.00     0.125 A 
HETATM    8  C   UNK     0     123.688 157.444 132.544  0.00  0.00     0.211 A 
HETATM    9  O   UNK     0     122.302 157.918 132.945  0.00  0.00    -0.170 OA
ENDROOT
BRANCH   7  10
HETATM   10  N   UNK     0     122.667 156.124 130.565  0.00  0.00    -0.217 NA
HETATM   11  C   UNK     0     122.554 154.666 130.157  0.00  0.00     0.234 C 
HETATM   12  O   UNK     0     123.584 153.704 130.548  0.00  0.00    -0.167 OA
BRANCH  11  13
HETATM   13  C   UNK     0     121.355 154.220 129.338  0.00  0.00     0.165 C 
BRANCH  13  14
HETATM   14  C   UNK     0     120.394 155.290 128.670  0.00  0.00     0.091 A 
HETATM   15  C   UNK     0     120.416 155.280 127.130  0.00  0.00     0.108 A 
HETATM   16  S   UNK     0     119.432 156.374 126.678  0.00  0.00    -0.072 SA
HETATM   17  C   UNK     0     118.774 157.092 127.957  0.00  0.00     0.456 A 
HETATM   18  N   UNK     0     119.376 156.414 129.203  0.00  0.00    -0.229 NA
HETATM   19  N   UNK     0     117.743 158.234 127.936  0.00  0.00     0.656 N 
ENDBRANCH  13  14
BRANCH  13  20
HETATM   20  N   UNK     0     121.041 152.647 129.133  0.00  0.00    -0.126 NA
BRANCH  20  21
HETATM   21  O   UNK     0     122.080 151.721 128.472  0.00  0.00    -0.234 OA
HETATM   22  C   UNK     0     122.582 150.462 129.202  0.00  0.00     0.211 C 
ENDBRANCH  20  21
ENDBRANCH  13  20
ENDBRANCH  11  13
ENDBRANCH   7  10
BRANCH   3  23
HETATM   23  C   UNK     0     126.295 158.792 134.843  0.00  0.00     0.227 C 
HETATM   24  O   UNK     0     126.220 158.255 136.304  0.00  0.00    -0.643 OA
HETATM   25  O   UNK     0     126.170 160.356 134.616  0.00  0.00    -0.643 OA
ENDBRANCH   3  23
BRANCH   4  26
HETATM   26  C   UNK     0     129.057 157.890 134.101  0.00  0.00     0.089 C 
BRANCH  26  27
HETATM   27  S   UNK     0     129.764 159.154 133.646  0.00  0.00    -0.071 SA
BRANCH  27  28
HETATM   28  C   UNK     0     130.298 159.231 132.227  0.00  0.00     0.190 A 
HETATM   29  N   UNK     0     131.554 158.438 131.821  0.00  0.00    -0.192 NA
HETATM   30  C   UNK     0     132.089 158.515 130.402  0.00  0.00     0.260 A 
HETATM   31  C   UNK     0     131.361 159.412 129.316  0.00  0.00     0.274 A 
HETATM   32  O   UNK     0     133.345 157.723 129.997  0.00  0.00    -0.165 OA
HETATM   33  N   UNK     0     130.104 160.204 129.721  0.00  0.00    -0.136 NA
HETATM   34  O   UNK     0     131.895 159.489 127.896  0.00  0.00    -0.164 OA
HETATM   35  N   UNK     0     129.575 160.100 131.212  0.00  0.00    -0.225 N 
HETATM   36  C   UNK     0     128.318 160.893 131.617  0.00  0.00     0.156 C 
ENDBRANCH  27  28
ENDBRANCH  26  27
ENDBRANCH   4  26
TORSDOF 9
ENDMDL
MODEL 5
REMARK VINA RESULT:      -7.3     39.644     47.341
REMARK  9 active torsions:
REMARK  status: ('A' for Active; 'I' for Inactive)
REMARK    1  A    between atoms: C_3  and  C_21 
REMARK    2  A    between atoms: C_4  and  C_14 
REMARK    3  A    between atoms: C_7  and  N_9 
REMARK       I    between atoms: N_9  and  C_10 
REMARK    4  A    between atoms: C_10  and  C_13 
REMARK    5  A    between atoms: C_13  and  C_15 
REMARK    6  A    between atoms: C_13  and  N_20 
REMARK    7  A    between atoms: C_14  and  S_24 
REMARK    8  A    between atoms: N_20  and  O_35 
REMARK    9  A    between atoms: S_24  and  C_25 
ROOT
HETATM    1  C   UNK     0     159.414 114.255 133.940  0.00  0.00     0.308 A 
HETATM    2  N   UNK     0     159.799 112.977 133.340  0.00  0.00    -0.297 N 
HETATM    3  C   UNK     0     160.601 111.926 134.215  0.00  0.00     0.121 A 
HETATM    4  C   UNK     0     160.965 112.241 135.656  0.00  0.00    -0.002 A 
HETATM    5  C   UNK     0     160.581 113.519 136.256  0.00  0.00     0.065 A 
HETATM    6  S   UNK     0     159.812 114.549 135.447  0.00  0.00    -0.194 SA
HETATM    7  C   UNK     0     158.748 114.675 132.617  0.00  0.00     0.125 A 
HETATM    8  C   UNK     0     159.132 113.398 132.017  0.00  0.00     0.211 A 
HETATM    9  O   UNK     0     158.768 113.083 130.577  0.00  0.00    -0.170 OA
ENDROOT
BRANCH   7  10
HETATM   10  N   UNK     0     157.979 115.705 131.809  0.00  0.00    -0.217 NA
HETATM   11  C   UNK     0     158.703 116.944 131.312  0.00  0.00     0.234 C 
HETATM   12  O   UNK     0     160.122 117.143 131.609  0.00  0.00    -0.167 OA
BRANCH  11  13
HETATM   13  C   UNK     0     157.934 117.974 130.503  0.00  0.00     0.165 C 
BRANCH  13  14
HETATM   14  C   UNK     0     158.565 118.600 129.191  0.00  0.00     0.091 A 
HETATM   15  C   UNK     0     159.396 119.874 129.438  0.00  0.00     0.108 A 
HETATM   16  S   UNK     0     159.917 120.323 128.060  0.00  0.00    -0.072 SA
HETATM   17  C   UNK     0     159.405 119.314 126.918  0.00  0.00     0.456 A 
HETATM   18  N   UNK     0     158.561 118.237 127.624  0.00  0.00    -0.229 NA
HETATM   19  N   UNK     0     159.705 119.411 125.411  0.00  0.00     0.656 N 
ENDBRANCH  13  14
BRANCH  13  20
HETATM   20  N   UNK     0     156.460 118.448 130.969  0.00  0.00    -0.126 NA
BRANCH  20  21
HETATM   21  O   UNK     0     156.283 119.358 132.201  0.00  0.00    -0.234 OA
HETATM   22  C   UNK     0     155.850 118.765 133.554  0.00  0.00     0.211 C 
ENDBRANCH  20  21
ENDBRANCH  13  20
ENDBRANCH  11  13
ENDBRANCH   7  10
BRANCH   3  23
HETATM   23  C   UNK     0     161.006 110.581 133.584  0.00  0.00     0.227 C 
HETATM   24  O   UNK     0     159.982 109.445 133.282  0.00  0.00    -0.643 OA
HETATM   25  O   UNK     0     162.529 110.329 133.220  0.00  0.00    -0.643 OA
ENDBRANCH   3  23
BRANCH   4  26
HETATM   26  C   UNK     0     161.755 111.144 136.433  0.00  0.00     0.089 C 
BRANCH  26  27
HETATM   27  S   UNK     0     160.977 110.352 137.470  0.00  0.00    -0.071 SA
BRANCH  27  28
HETATM   28  C   UNK     0     159.469 110.241 137.335  0.00  0.00     0.190 A 
HETATM   29  N   UNK     0     158.846 109.329 136.262  0.00  0.00    -0.192 NA
HETATM   30  C   UNK     0     157.338 109.218 136.127  0.00  0.00     0.260 A 
HETATM   31  C   UNK     0     156.381 110.039 137.089  0.00  0.00     0.274 A 
HETATM   32  O   UNK     0     156.715 108.306 135.054  0.00  0.00    -0.165 OA
HETATM   33  N   UNK     0     157.004 110.951 138.163  0.00  0.00    -0.136 NA
HETATM   34  O   UNK     0     154.873 109.927 136.955  0.00  0.00    -0.164 OA
HETATM   35  N   UNK     0     158.583 111.042 138.274  0.00  0.00    -0.225 N 
HETATM   36  C   UNK     0     159.206 111.954 139.347  0.00  0.00     0.156 C 
ENDBRANCH  27  28
ENDBRANCH  26  27
ENDBRANCH   4  26
TORSDOF 9
ENDMDL
MODEL 6
REMARK VINA RESULT:      -7.2     28.954     31.173
REMARK  9 active torsions:
REMARK  status: ('A' for Active; 'I' for Inactive)
REMARK    1  A    between atoms: C_3  and  C_21 
REMARK    2  A    between atoms: C_4  and  C_14 
REMARK    3  A    between atoms: C_7  and  N_9 
REMARK       I    between atoms: N_9  and  C_10 
REMARK    4  A    between atoms: C_10  and  C_13 
REMARK    5  A    between atoms: C_13  and  C_15 
REMARK    6  A    between atoms: C_13  and  N_20 
REMARK    7  A    between atoms: C_14  and  S_24 
REMARK    8  A    between atoms: N_20  and  O_35 
REMARK    9  A    between atoms: S_24  and  C_25 
ROOT
HETATM    1  C   UNK     0     124.249 156.829 132.920  0.00  0.00     0.308 A 
HETATM    2  N   UNK     0     124.984 158.083 132.755  0.00  0.00    -0.297 N 
HETATM    3  C   UNK     0     125.993 158.540 133.890  0.00  0.00     0.121 A 
HETATM    4  C   UNK     0     126.195 157.687 135.130  0.00  0.00    -0.002 A 
HETATM    5  C   UNK     0     125.460 156.432 135.295  0.00  0.00     0.065 A 
HETATM    6  S   UNK     0     124.486 155.964 134.229  0.00  0.00    -0.194 SA
HETATM    7  C   UNK     0     123.557 157.055 131.563  0.00  0.00     0.125 A 
HETATM    8  C   UNK     0     124.292 158.310 131.398  0.00  0.00     0.211 A 
HETATM    9  O   UNK     0     124.090 159.163 130.158  0.00  0.00    -0.170 OA
ENDROOT
BRANCH   7  10
HETATM   10  N   UNK     0     122.583 156.588 130.497  0.00  0.00    -0.217 NA
HETATM   11  C   UNK     0     122.599 155.130 130.070  0.00  0.00     0.234 C 
HETATM   12  O   UNK     0     123.541 154.190 130.678  0.00  0.00    -0.167 OA
BRANCH  11  13
HETATM   13  C   UNK     0     121.624 154.662 129.004  0.00  0.00     0.165 C 
BRANCH  13  14
HETATM   14  C   UNK     0     120.435 155.600 128.534  0.00  0.00     0.091 A 
HETATM   15  C   UNK     0     120.250 155.662 127.006  0.00  0.00     0.108 A 
HETATM   16  S   UNK     0     119.063 156.610 126.754  0.00  0.00    -0.072 SA
HETATM   17  C   UNK     0     118.486 157.160 128.151  0.00  0.00     0.456 A 
HETATM   18  N   UNK     0     119.344 156.529 129.263  0.00  0.00    -0.229 NA
HETATM   19  N   UNK     0     117.305 158.130 128.334  0.00  0.00     0.656 N 
ENDBRANCH  13  14
BRANCH  13  20
HETATM   20  N   UNK     0     121.784 153.201 128.331  0.00  0.00    -0.126 NA
BRANCH  20  21
HETATM   21  O   UNK     0     121.536 151.926 129.161  0.00  0.00    -0.234 OA
HETATM   22  C   UNK     0     122.636 150.859 129.303  0.00  0.00     0.211 C 
ENDBRANCH  20  21
ENDBRANCH  13  20
ENDBRANCH  11  13
ENDBRANCH   7  10
BRANCH   3  23
HETATM   23  C   UNK     0     126.766 159.860 133.716  0.00  0.00     0.227 C 
HETATM   24  O   UNK     0     126.188 161.243 134.148  0.00  0.00    -0.643 OA
HETATM   25  O   UNK     0     128.214 159.826 133.071  0.00  0.00    -0.643 OA
ENDBRANCH   3  23
BRANCH   4  26
HETATM   26  C   UNK     0     127.208 158.220 136.188  0.00  0.00     0.089 C 
BRANCH  26  27
HETATM   27  S   UNK     0     128.334 157.283 136.586  0.00  0.00    -0.071 SA
BRANCH  27  28
HETATM   28  C   UNK     0     128.374 156.735 138.002  0.00  0.00     0.190 A 
HETATM   29  N   UNK     0     127.227 155.853 138.530  0.00  0.00    -0.192 NA
HETATM   30  C   UNK     0     127.266 155.306 139.946  0.00  0.00     0.260 A 
HETATM   31  C   UNK     0     128.488 155.634 140.901  0.00  0.00     0.274 A 
HETATM   32  O   UNK     0     126.119 154.424 140.474  0.00  0.00    -0.165 OA
HETATM   33  N   UNK     0     129.635 156.515 140.373  0.00  0.00    -0.136 NA
HETATM   34  O   UNK     0     128.527 155.086 142.317  0.00  0.00    -0.164 OA
HETATM   35  N   UNK     0     129.560 157.069 138.889  0.00  0.00    -0.225 N 
HETATM   36  C   UNK     0     130.707 157.951 138.361  0.00  0.00     0.156 C 
ENDBRANCH  27  28
ENDBRANCH  26  27
ENDBRANCH   4  26
TORSDOF 9
ENDMDL
MODEL 7
REMARK VINA RESULT:      -7.1     26.606     28.896
REMARK  9 active torsions:
REMARK  status: ('A' for Active; 'I' for Inactive)
REMARK    1  A    between atoms: C_3  and  C_21 
REMARK    2  A    between atoms: C_4  and  C_14 
REMARK    3  A    between atoms: C_7  and  N_9 
REMARK       I    between atoms: N_9  and  C_10 
REMARK    4  A    between atoms: C_10  and  C_13 
REMARK    5  A    between atoms: C_13  and  C_15 
REMARK    6  A    between atoms: C_13  and  N_20 
REMARK    7  A    between atoms: C_14  and  S_24 
REMARK    8  A    between atoms: N_20  and  O_35 
REMARK    9  A    between atoms: S_24  and  C_25 
ROOT
HETATM    1  C   UNK     0     125.970 156.197 131.142  0.00  0.00     0.308 A 
HETATM    2  N   UNK     0     125.788 156.641 132.524  0.00  0.00    -0.297 N 
HETATM    3  C   UNK     0     126.996 157.345 133.272  0.00  0.00     0.121 A 
HETATM    4  C   UNK     0     128.323 157.557 132.563  0.00  0.00    -0.002 A 
HETATM    5  C   UNK     0     128.504 157.114 131.181  0.00  0.00     0.065 A 
HETATM    6  S   UNK     0     127.368 156.435 130.434  0.00  0.00    -0.194 SA
HETATM    7  C   UNK     0     124.522 155.674 131.120  0.00  0.00     0.125 A 
HETATM    8  C   UNK     0     124.340 156.117 132.502  0.00  0.00     0.211 A 
HETATM    9  O   UNK     0     123.014 155.905 133.211  0.00  0.00    -0.170 OA
ENDROOT
BRANCH   7  10
HETATM   10  N   UNK     0     123.386 154.996 130.373  0.00  0.00    -0.217 NA
HETATM   11  C   UNK     0     122.201 155.829 129.917  0.00  0.00     0.234 C 
HETATM   12  O   UNK     0     122.154 157.265 130.193  0.00  0.00    -0.167 OA
BRANCH  11  13
HETATM   13  C   UNK     0     121.066 155.151 129.171  0.00  0.00     0.165 C 
BRANCH  13  14
HETATM   14  C   UNK     0     121.273 153.720 128.520  0.00  0.00     0.091 A 
HETATM   15  C   UNK     0     120.802 152.552 129.407  0.00  0.00     0.108 A 
HETATM   16  S   UNK     0     121.083 151.265 128.611  0.00  0.00    -0.072 SA
HETATM   17  C   UNK     0     121.745 151.625 127.191  0.00  0.00     0.456 A 
HETATM   18  N   UNK     0     121.864 153.159 127.134  0.00  0.00    -0.229 NA
HETATM   19  N   UNK     0     122.176 150.625 126.102  0.00  0.00     0.656 N 
ENDBRANCH  13  14
BRANCH  13  20
HETATM   20  N   UNK     0     119.629 155.878 129.028  0.00  0.00    -0.126 NA
BRANCH  20  21
HETATM   21  O   UNK     0     119.492 157.191 128.232  0.00  0.00    -0.234 OA
HETATM   22  C   UNK     0     118.101 157.736 127.857  0.00  0.00     0.211 C 
ENDBRANCH  20  21
ENDBRANCH  13  20
ENDBRANCH  11  13
ENDBRANCH   7  10
BRANCH   3  23
HETATM   23  C   UNK     0     126.805 157.811 134.727  0.00  0.00     0.227 C 
HETATM   24  O   UNK     0     125.898 159.018 135.118  0.00  0.00    -0.643 OA
HETATM   25  O   UNK     0     127.559 157.039 135.888  0.00  0.00    -0.643 OA
ENDBRANCH   3  23
BRANCH   4  26
HETATM   26  C   UNK     0     129.448 158.258 133.382  0.00  0.00     0.089 C 
BRANCH  26  27
HETATM   27  S   UNK     0     129.852 159.651 132.930  0.00  0.00    -0.071 SA
BRANCH  27  28
HETATM   28  C   UNK     0     128.774 160.699 132.717  0.00  0.00     0.190 A 
HETATM   29  N   UNK     0     128.007 161.285 133.916  0.00  0.00    -0.192 NA
HETATM   30  C   UNK     0     126.928 162.333 133.703  0.00  0.00     0.260 A 
HETATM   31  C   UNK     0     126.577 162.839 132.242  0.00  0.00     0.274 A 
HETATM   32  O   UNK     0     126.161 162.920 134.902  0.00  0.00    -0.165 OA
HETATM   33  N   UNK     0     127.344 162.253 131.042  0.00  0.00    -0.136 NA
HETATM   34  O   UNK     0     125.498 163.887 132.028  0.00  0.00    -0.164 OA
HETATM   35  N   UNK     0     128.463 161.160 131.304  0.00  0.00    -0.225 N 
HETATM   36  C   UNK     0     129.230 160.574 130.104  0.00  0.00     0.156 C 
ENDBRANCH  27  28
ENDBRANCH  26  27
ENDBRANCH   4  26
TORSDOF 9
ENDMDL
MODEL 8
REMARK VINA RESULT:      -7.1     24.075     26.988
REMARK  9 active torsions:
REMARK  status: ('A' for Active; 'I' for Inactive)
REMARK    1  A    between atoms: C_3  and  C_21 
REMARK    2  A    between atoms: C_4  and  C_14 
REMARK    3  A    between atoms: C_7  and  N_9 
REMARK       I    between atoms: N_9  and  C_10 
REMARK    4  A    between atoms: C_10  and  C_13 
REMARK    5  A    between atoms: C_13  and  C_15 
REMARK    6  A    between atoms: C_13  and  N_20 
REMARK    7  A    between atoms: C_14  and  S_24 
REMARK    8  A    between atoms: N_20  and  O_35 
REMARK    9  A    between atoms: S_24  and  C_25 
ROOT
HETATM    1  C   UNK     0     127.560 156.208 131.573  0.00  0.00     0.308 A 
HETATM    2  N   UNK     0     128.437 156.787 130.556  0.00  0.00    -0.297 N 
HETATM    3  C   UNK     0     129.645 157.707 131.014  0.00  0.00     0.121 A 
HETATM    4  C   UNK     0     129.888 157.982 132.487  0.00  0.00    -0.002 A 
HETATM    5  C   UNK     0     129.011 157.403 133.505  0.00  0.00     0.065 A 
HETATM    6  S   UNK     0     127.844 156.517 133.102  0.00  0.00    -0.194 SA
HETATM    7  C   UNK     0     126.731 155.525 130.470  0.00  0.00     0.125 A 
HETATM    8  C   UNK     0     127.608 156.104 129.452  0.00  0.00     0.211 A 
HETATM    9  O   UNK     0     127.366 155.829 127.979  0.00  0.00    -0.170 OA
ENDROOT
BRANCH   7  10
HETATM   10  N   UNK     0     125.565 154.639 130.067  0.00  0.00    -0.217 NA
HETATM   11  C   UNK     0     124.149 155.111 130.347  0.00  0.00     0.234 C 
HETATM   12  O   UNK     0     123.912 156.401 130.996  0.00  0.00    -0.167 OA
BRANCH  11  13
HETATM   13  C   UNK     0     122.983 154.226 129.944  0.00  0.00     0.165 C 
BRANCH  13  14
HETATM   14  C   UNK     0     123.205 153.000 128.964  0.00  0.00     0.091 A 
HETATM   15  C   UNK     0     123.652 153.401 127.547  0.00  0.00     0.108 A 
HETATM   16  S   UNK     0     123.812 152.089 126.757  0.00  0.00    -0.072 SA
HETATM   17  C   UNK     0     123.459 150.831 127.694  0.00  0.00     0.456 A 
HETATM   18  N   UNK     0     123.080 151.400 129.074  0.00  0.00    -0.229 NA
HETATM   19  N   UNK     0     123.496 149.348 127.286  0.00  0.00     0.656 N 
ENDBRANCH  13  14
BRANCH  13  20
HETATM   20  N   UNK     0     121.496 154.521 130.509  0.00  0.00    -0.126 NA
BRANCH  20  21
HETATM   21  O   UNK     0     120.329 154.786 129.538  0.00  0.00    -0.234 OA
HETATM   22  C   UNK     0     120.467 155.835 128.419  0.00  0.00     0.211 C 
ENDBRANCH  20  21
ENDBRANCH  13  20
ENDBRANCH  11  13
ENDBRANCH   7  10
BRANCH   3  23
HETATM   23  C   UNK     0     130.569 158.316 129.943  0.00  0.00     0.227 C 
HETATM   24  O   UNK     0     132.072 157.929 129.801  0.00  0.00    -0.643 OA
HETATM   25  O   UNK     0     129.976 159.386 128.934  0.00  0.00    -0.643 OA
ENDBRANCH   3  23
BRANCH   4  26
HETATM   26  C   UNK     0     131.100 158.898 132.837  0.00  0.00     0.089 C 
BRANCH  26  27
HETATM   27  S   UNK     0     132.357 158.204 133.334  0.00  0.00    -0.071 SA
BRANCH  27  28
HETATM   28  C   UNK     0     133.280 158.943 134.287  0.00  0.00     0.190 A 
HETATM   29  N   UNK     0     134.539 159.656 133.759  0.00  0.00    -0.192 NA
HETATM   30  C   UNK     0     135.462 160.395 134.712  0.00  0.00     0.260 A 
HETATM   31  C   UNK     0     135.143 160.444 136.264  0.00  0.00     0.274 A 
HETATM   32  O   UNK     0     136.721 161.107 134.184  0.00  0.00    -0.165 OA
HETATM   33  N   UNK     0     133.884 159.731 136.792  0.00  0.00    -0.136 NA
HETATM   34  O   UNK     0     136.066 161.183 137.217  0.00  0.00    -0.164 OA
HETATM   35  N   UNK     0     132.944 158.970 135.767  0.00  0.00    -0.225 N 
HETATM   36  C   UNK     0     131.684 158.257 136.295  0.00  0.00     0.156 C 
ENDBRANCH  27  28
ENDBRANCH  26  27
ENDBRANCH   4  26
TORSDOF 9
ENDMDL
MODEL 9
REMARK VINA RESULT:      -7.0     39.853     47.116
REMARK  9 active torsions:
REMARK  status: ('A' for Active; 'I' for Inactive)
REMARK    1  A    between atoms: C_3  and  C_21 
REMARK    2  A    between atoms: C_4  and  C_14 
REMARK    3  A    between atoms: C_7  and  N_9 
REMARK       I    between atoms: N_9  and  C_10 
REMARK    4  A    between atoms: C_10  and  C_13 
REMARK    5  A    between atoms: C_13  and  C_15 
REMARK    6  A    between atoms: C_13  and  N_20 
REMARK    7  A    between atoms: C_14  and  S_24 
REMARK    8  A    between atoms: N_20  and  O_35 
REMARK    9  A    between atoms: S_24  and  C_25 
ROOT
HETATM    1  C   UNK     0     158.502 114.290 134.762  0.00  0.00     0.308 A 
HETATM    2  N   UNK     0     159.530 113.309 134.419  0.00  0.00    -0.297 N 
HETATM    3  C   UNK     0     159.539 111.909 135.164  0.00  0.00     0.121 A 
HETATM    4  C   UNK     0     158.495 111.593 136.221  0.00  0.00    -0.002 A 
HETATM    5  C   UNK     0     157.466 112.575 136.565  0.00  0.00     0.065 A 
HETATM    6  S   UNK     0     157.428 113.925 135.870  0.00  0.00    -0.194 SA
HETATM    7  C   UNK     0     159.093 115.271 133.733  0.00  0.00     0.125 A 
HETATM    8  C   UNK     0     160.122 114.289 133.389  0.00  0.00     0.211 A 
HETATM    9  O   UNK     0     161.166 114.605 132.332  0.00  0.00    -0.170 OA
ENDROOT
BRANCH   7  10
HETATM   10  N   UNK     0     159.055 116.621 133.038  0.00  0.00    -0.217 NA
HETATM   11  C   UNK     0     158.387 116.732 131.679  0.00  0.00     0.234 C 
HETATM   12  O   UNK     0     157.790 115.556 131.047  0.00  0.00    -0.167 OA
BRANCH  11  13
HETATM   13  C   UNK     0     158.349 118.083 130.984  0.00  0.00     0.165 C 
BRANCH  13  14
HETATM   14  C   UNK     0     157.515 118.277 129.649  0.00  0.00     0.091 A 
HETATM   15  C   UNK     0     158.333 118.847 128.476  0.00  0.00     0.108 A 
HETATM   16  S   UNK     0     157.360 118.961 127.287  0.00  0.00    -0.072 SA
HETATM   17  C   UNK     0     155.897 118.452 127.718  0.00  0.00     0.456 A 
HETATM   18  N   UNK     0     155.994 118.025 129.194  0.00  0.00    -0.229 NA
HETATM   19  N   UNK     0     154.645 118.404 126.824  0.00  0.00     0.656 N 
ENDBRANCH  13  14
BRANCH  13  20
HETATM   20  N   UNK     0     159.157 119.342 131.596  0.00  0.00    -0.126 NA
BRANCH  20  21
HETATM   21  O   UNK     0     160.648 119.549 131.266  0.00  0.00    -0.234 OA
HETATM   22  C   UNK     0     161.673 118.435 131.547  0.00  0.00     0.211 C 
ENDBRANCH  20  21
ENDBRANCH  13  20
ENDBRANCH  11  13
ENDBRANCH   7  10
BRANCH   3  23
HETATM   23  C   UNK     0     160.622 110.876 134.802  0.00  0.00     0.227 C 
HETATM   24  O   UNK     0     161.824 110.546 135.738  0.00  0.00    -0.643 OA
HETATM   25  O   UNK     0     160.520 110.107 133.420  0.00  0.00    -0.643 OA
ENDBRANCH   3  23
BRANCH   4  26
HETATM   26  C   UNK     0     158.588 110.191 136.897  0.00  0.00     0.089 C 
BRANCH  26  27
HETATM   27  S   UNK     0     158.234 108.994 136.033  0.00  0.00    -0.071 SA
BRANCH  27  28
HETATM   28  C   UNK     0     157.028 109.077 135.113  0.00  0.00     0.190 A 
HETATM   29  N   UNK     0     157.175 109.621 133.680  0.00  0.00    -0.192 NA
HETATM   30  C   UNK     0     155.969 109.705 132.761  0.00  0.00     0.260 A 
HETATM   31  C   UNK     0     154.541 109.234 133.263  0.00  0.00     0.274 A 
HETATM   32  O   UNK     0     156.116 110.249 131.328  0.00  0.00    -0.165 OA
HETATM   33  N   UNK     0     154.394 108.690 134.696  0.00  0.00    -0.136 NA
HETATM   34  O   UNK     0     153.335 109.317 132.344  0.00  0.00    -0.164 OA
HETATM   35  N   UNK     0     155.675 108.617 135.627  0.00  0.00    -0.225 N 
HETATM   36  C   UNK     0     155.528 108.073 137.061  0.00  0.00     0.156 C 
ENDBRANCH  27  28
ENDBRANCH  26  27
ENDBRANCH   4  26
TORSDOF 9
ENDMDL
MODEL 10
REMARK VINA RESULT:      -6.9     24.273     26.769
REMARK  9 active torsions:
REMARK  status: ('A' for Active; 'I' for Inactive)
REMARK    1  A    between atoms: C_3  and  C_21 
REMARK    2  A    between atoms: C_4  and  C_14 
REMARK    3  A    between atoms: C_7  and  N_9 
REMARK       I    between atoms: N_9  and  C_10 
REMARK    4  A    between atoms: C_10  and  C_13 
REMARK    5  A    between atoms: C_13  and  C_15 
REMARK    6  A    between atoms: C_13  and  N_20 
REMARK    7  A    between atoms: C_14  and  S_24 
REMARK    8  A    between atoms: N_20  and  O_35 
REMARK    9  A    between atoms: S_24  and  C_25 
ROOT
HETATM    1  C   UNK     0     127.602 156.257 131.335  0.00  0.00     0.308 A 
HETATM    2  N   UNK     0     128.586 156.907 130.469  0.00  0.00    -0.297 N 
HETATM    3  C   UNK     0     129.612 157.934 131.106  0.00  0.00     0.121 A 
HETATM    4  C   UNK     0     129.573 158.241 132.593  0.00  0.00    -0.002 A 
HETATM    5  C   UNK     0     128.588 157.591 133.458  0.00  0.00     0.065 A 
HETATM    6  S   UNK     0     127.591 156.602 132.882  0.00  0.00    -0.194 SA
HETATM    7  C   UNK     0     127.038 155.495 130.121  0.00  0.00     0.125 A 
HETATM    8  C   UNK     0     128.022 156.144 129.256  0.00  0.00     0.211 A 
HETATM    9  O   UNK     0     128.062 155.838 127.769  0.00  0.00    -0.170 OA
ENDROOT
BRANCH   7  10
HETATM   10  N   UNK     0     126.040 154.505 129.545  0.00  0.00    -0.217 NA
HETATM   11  C   UNK     0     124.658 154.406 130.165  0.00  0.00     0.234 C 
HETATM   12  O   UNK     0     124.292 155.251 131.302  0.00  0.00    -0.167 OA
BRANCH  11  13
HETATM   13  C   UNK     0     123.660 153.416 129.589  0.00  0.00     0.165 C 
BRANCH  13  14
HETATM   14  C   UNK     0     122.482 153.915 128.653  0.00  0.00     0.091 A 
HETATM   15  C   UNK     0     121.438 154.792 129.369  0.00  0.00     0.108 A 
HETATM   16  S   UNK     0     120.390 155.170 128.305  0.00  0.00    -0.072 SA
HETATM   17  C   UNK     0     120.779 154.519 126.887  0.00  0.00     0.456 A 
HETATM   18  N   UNK     0     122.087 153.735 127.104  0.00  0.00    -0.229 NA
HETATM   19  N   UNK     0     119.994 154.657 125.571  0.00  0.00     0.656 N 
ENDBRANCH  13  14
BRANCH  13  20
HETATM   20  N   UNK     0     123.784 151.839 129.923  0.00  0.00    -0.126 NA
BRANCH  20  21
HETATM   21  O   UNK     0     123.135 150.790 128.998  0.00  0.00    -0.234 OA
HETATM   22  C   UNK     0     121.640 150.448 129.134  0.00  0.00     0.211 C 
ENDBRANCH  20  21
ENDBRANCH  13  20
ENDBRANCH  11  13
ENDBRANCH   7  10
BRANCH   3  23
HETATM   23  C   UNK     0     130.649 158.618 130.195  0.00  0.00     0.227 C 
HETATM   24  O   UNK     0     130.334 159.902 129.368  0.00  0.00    -0.643 OA
HETATM   25  O   UNK     0     132.104 157.998 130.084  0.00  0.00    -0.643 OA
ENDBRANCH   3  23
BRANCH   4  26
HETATM   26  C   UNK     0     130.622 159.264 133.123  0.00  0.00     0.089 C 
BRANCH  26  27
HETATM   27  S   UNK     0     131.692 158.722 134.055  0.00  0.00    -0.071 SA
BRANCH  27  28
HETATM   28  C   UNK     0     133.027 159.441 134.144  0.00  0.00     0.190 A 
HETATM   29  N   UNK     0     133.103 160.970 133.977  0.00  0.00    -0.192 NA
HETATM   30  C   UNK     0     134.438 161.688 134.066  0.00  0.00     0.260 A 
HETATM   31  C   UNK     0     135.773 160.875 134.331  0.00  0.00     0.274 A 
HETATM   32  O   UNK     0     134.514 163.217 133.900  0.00  0.00    -0.165 OA
HETATM   33  N   UNK     0     135.697 159.346 134.497  0.00  0.00    -0.136 NA
HETATM   34  O   UNK     0     137.108 161.594 134.419  0.00  0.00    -0.164 OA
HETATM   35  N   UNK     0     134.286 158.630 134.398  0.00  0.00    -0.225 N 
HETATM   36  C   UNK     0     134.210 157.101 134.564  0.00  0.00     0.156 C 
ENDBRANCH  27  28
ENDBRANCH  26  27
ENDBRANCH   4  26
TORSDOF 9
ENDMDL
