MODEL 1
REMARK VINA RESULT:      -8.6      0.000      0.000
REMARK  1 active torsions:
REMARK  status: ('A' for Active; 'I' for Inactive)
REMARK    1  A    between atoms: N_4  and  C_11 
ROOT
HETATM    1 Cl   UNK     0     140.642 114.251 166.111  0.00  0.00    -0.091 Cl
HETATM    2  O   UNK     0     145.273 109.833 170.629  0.00  0.00    -0.171 OA
HETATM    3  O   UNK     0     145.593 114.199 173.405  0.00  0.00    -0.171 OA
HETATM    4  N   UNK     0     143.839 111.688 169.486  0.00  0.00    -0.295 N 
HETATM    5  N   UNK     0     144.053 114.602 171.340  0.00  0.00    -0.307 N 
HETATM    6  C   UNK     0     143.171 113.048 169.216  0.00  0.00     0.059 A 
HETATM    7  C   UNK     0     143.266 114.346 170.041  0.00  0.00     0.052 A 
HETATM    8  C   UNK     0     145.257 112.149 171.826  0.00  0.00     0.091 A 
HETATM    9  C   UNK     0     144.767 111.288 170.648  0.00  0.00     0.201 A 
HETATM   10  C   UNK     0     144.939 113.624 172.134  0.00  0.00     0.198 A 
HETATM   11  C   UNK     0     142.288 112.987 167.878  0.00  0.00     0.079 A 
HETATM   12  C   UNK     0     142.485 115.671 169.585  0.00  0.00     0.050 A 
HETATM   13  C   UNK     0     143.938 116.024 171.921  0.00  0.00     0.132 C 
HETATM   14  C   UNK     0     141.494 114.293 167.393  0.00  0.00     0.020 A 
HETATM   15  C   UNK     0     141.593 115.645 168.252  0.00  0.00     0.040 A 
ENDROOT
BRANCH   4  16
HETATM   16  C   UNK     0     143.539 110.581 168.459  0.00  0.00     0.021 A 
HETATM   17  C   UNK     0     144.445 110.409 167.225  0.00  0.00     0.040 A 
HETATM   18  C   UNK     0     144.145 109.302 166.198  0.00  0.00     0.006 A 
HETATM   19  C   UNK     0     142.940 108.366 166.404  0.00  0.00     0.001 A 
HETATM   20  C   UNK     0     142.034 108.538 167.638  0.00  0.00     0.006 A 
HETATM   21  C   UNK     0     142.334 109.644 168.665  0.00  0.00     0.040 A 
ENDBRANCH   4  16
TORSDOF 1
ENDMDL
MODEL 2
REMARK VINA RESULT:      -8.2      3.198      4.838
REMARK  1 active torsions:
REMARK  status: ('A' for Active; 'I' for Inactive)
REMARK    1  A    between atoms: N_4  and  C_11 
ROOT
HETATM    1 Cl   UNK     0     145.996 114.205 173.915  0.00  0.00    -0.091 Cl
HETATM    2  O   UNK     0     143.438 110.071 167.772  0.00  0.00    -0.171 OA
HETATM    3  O   UNK     0     140.924 114.477 166.709  0.00  0.00    -0.171 OA
HETATM    4  N   UNK     0     143.987 111.840 169.608  0.00  0.00    -0.295 N 
HETATM    5  N   UNK     0     142.309 114.782 168.898  0.00  0.00    -0.307 N 
HETATM    6  C   UNK     0     143.994 113.163 170.395  0.00  0.00     0.059 A 
HETATM    7  C   UNK     0     143.247 114.473 170.079  0.00  0.00     0.052 A 
HETATM    8  C   UNK     0     142.296 112.396 167.479  0.00  0.00     0.091 A 
HETATM    9  C   UNK     0     143.231 111.498 168.310  0.00  0.00     0.201 A 
HETATM   10  C   UNK     0     141.886 113.857 167.741  0.00  0.00     0.198 A 
HETATM   11  C   UNK     0     144.934 113.044 171.690  0.00  0.00     0.079 A 
HETATM   12  C   UNK     0     143.388 115.752 171.036  0.00  0.00     0.050 A 
HETATM   13  C   UNK     0     141.715 116.202 168.870  0.00  0.00     0.132 C 
HETATM   14  C   UNK     0     145.098 114.304 172.668  0.00  0.00     0.020 A 
HETATM   15  C   UNK     0     144.320 115.668 172.339  0.00  0.00     0.040 A 
ENDROOT
BRANCH   4  16
HETATM   16  C   UNK     0     144.849 110.708 170.196  0.00  0.00     0.021 A 
HETATM   17  C   UNK     0     144.206 109.638 171.098  0.00  0.00     0.040 A 
HETATM   18  C   UNK     0     145.069 108.506 171.686  0.00  0.00     0.006 A 
HETATM   19  C   UNK     0     146.574 108.444 171.372  0.00  0.00     0.001 A 
HETATM   20  C   UNK     0     147.218 109.514 170.470  0.00  0.00     0.006 A 
HETATM   21  C   UNK     0     146.356 110.645 169.882  0.00  0.00     0.040 A 
ENDBRANCH   4  16
TORSDOF 1
ENDMDL
MODEL 3
REMARK VINA RESULT:      -8.0      2.747      4.496
REMARK  1 active torsions:
REMARK  status: ('A' for Active; 'I' for Inactive)
REMARK    1  A    between atoms: N_4  and  C_11 
ROOT
HETATM    1 Cl   UNK     0     144.000 108.978 168.329  0.00  0.00    -0.091 Cl
HETATM    2  O   UNK     0     142.660 116.659 169.089  0.00  0.00    -0.171 OA
HETATM    3  O   UNK     0     144.987 115.928 173.663  0.00  0.00    -0.171 OA
HETATM    4  N   UNK     0     143.327 114.149 169.325  0.00  0.00    -0.295 N 
HETATM    5  N   UNK     0     144.881 113.661 172.378  0.00  0.00    -0.307 N 
HETATM    6  C   UNK     0     143.895 112.845 169.915  0.00  0.00     0.059 A 
HETATM    7  C   UNK     0     144.587 112.628 171.274  0.00  0.00     0.052 A 
HETATM    8  C   UNK     0     143.856 116.010 171.313  0.00  0.00     0.091 A 
HETATM    9  C   UNK     0     143.310 115.557 169.947  0.00  0.00     0.201 A 
HETATM   10  C   UNK     0     144.556 115.166 172.395  0.00  0.00     0.198 A 
HETATM   11  C   UNK     0     143.683 111.625 168.896  0.00  0.00     0.079 A 
HETATM   12  C   UNK     0     145.114 111.176 171.708  0.00  0.00     0.050 A 
HETATM   13  C   UNK     0     145.594 113.117 173.630  0.00  0.00     0.132 C 
HETATM   14  C   UNK     0     144.197 110.159 169.297  0.00  0.00     0.020 A 
HETATM   15  C   UNK     0     144.918 109.933 170.712  0.00  0.00     0.040 A 
ENDROOT
BRANCH   4  16
HETATM   16  C   UNK     0     142.692 114.028 167.927  0.00  0.00     0.021 A 
HETATM   17  C   UNK     0     143.587 113.858 166.686  0.00  0.00     0.040 A 
HETATM   18  C   UNK     0     142.952 113.737 165.288  0.00  0.00     0.006 A 
HETATM   19  C   UNK     0     141.421 113.786 165.132  0.00  0.00     0.001 A 
HETATM   20  C   UNK     0     140.525 113.956 166.374  0.00  0.00     0.006 A 
HETATM   21  C   UNK     0     141.161 114.077 167.770  0.00  0.00     0.040 A 
ENDBRANCH   4  16
TORSDOF 1
ENDMDL
MODEL 4
REMARK VINA RESULT:      -7.6     26.228     28.993
REMARK  1 active torsions:
REMARK  status: ('A' for Active; 'I' for Inactive)
REMARK    1  A    between atoms: N_4  and  C_11 
ROOT
HETATM    1 Cl   UNK     0     157.351 138.552 166.420  0.00  0.00    -0.091 Cl
HETATM    2  O   UNK     0     150.605 140.135 170.076  0.00  0.00    -0.171 OA
HETATM    3  O   UNK     0     148.629 137.281 166.227  0.00  0.00    -0.171 OA
HETATM    4  N   UNK     0     152.537 139.336 168.517  0.00  0.00    -0.295 N 
HETATM    5  N   UNK     0     151.218 137.430 165.947  0.00  0.00    -0.307 N 
HETATM    6  C   UNK     0     153.276 138.648 167.354  0.00  0.00     0.059 A 
HETATM    7  C   UNK     0     152.689 137.800 166.210  0.00  0.00     0.052 A 
HETATM    8  C   UNK     0     149.886 138.670 168.043  0.00  0.00     0.091 A 
HETATM    9  C   UNK     0     151.028 139.345 168.823  0.00  0.00     0.201 A 
HETATM   10  C   UNK     0     149.970 137.818 166.763  0.00  0.00     0.198 A 
HETATM   11  C   UNK     0     154.854 138.920 167.451  0.00  0.00     0.079 A 
HETATM   12  C   UNK     0     153.639 137.165 165.084  0.00  0.00     0.050 A 
HETATM   13  C   UNK     0     150.959 136.559 164.704  0.00  0.00     0.132 C 
HETATM   14  C   UNK     0     155.834 138.300 166.342  0.00  0.00     0.020 A 
HETATM   15  C   UNK     0     155.222 137.417 165.150  0.00  0.00     0.040 A 
ENDROOT
BRANCH   4  16
HETATM   16  C   UNK     0     153.424 140.117 169.503  0.00  0.00     0.021 A 
HETATM   17  C   UNK     0     154.052 139.397 170.712  0.00  0.00     0.040 A 
HETATM   18  C   UNK     0     154.939 140.179 171.699  0.00  0.00     0.006 A 
HETATM   19  C   UNK     0     155.198 141.680 171.477  0.00  0.00     0.001 A 
HETATM   20  C   UNK     0     154.570 142.400 170.269  0.00  0.00     0.006 A 
HETATM   21  C   UNK     0     153.684 141.619 169.283  0.00  0.00     0.040 A 
ENDBRANCH   4  16
TORSDOF 1
ENDMDL
MODEL 5
REMARK VINA RESULT:      -7.6     41.136     43.643
REMARK  1 active torsions:
REMARK  status: ('A' for Active; 'I' for Inactive)
REMARK    1  A    between atoms: N_4  and  C_11 
ROOT
HETATM    1 Cl   UNK     0     105.423 141.682 168.298  0.00  0.00    -0.091 Cl
HETATM    2  O   UNK     0     112.477 138.613 166.812  0.00  0.00    -0.171 OA
HETATM    3  O   UNK     0     112.207 137.284 171.815  0.00  0.00    -0.171 OA
HETATM    4  N   UNK     0     110.214 139.447 167.804  0.00  0.00    -0.295 N 
HETATM    5  N   UNK     0     110.033 138.560 171.144  0.00  0.00    -0.307 N 
HETATM    6  C   UNK     0     109.079 139.717 168.809  0.00  0.00     0.059 A 
HETATM    7  C   UNK     0     108.999 139.322 170.296  0.00  0.00     0.052 A 
HETATM    8  C   UNK     0     112.079 138.074 169.332  0.00  0.00     0.091 A 
HETATM    9  C   UNK     0     111.549 138.716 168.037  0.00  0.00     0.201 A 
HETATM   10  C   UNK     0     111.404 138.005 170.715  0.00  0.00     0.198 A 
HETATM   11  C   UNK     0     107.881 140.518 168.105  0.00  0.00     0.079 A 
HETATM   12  C   UNK     0     107.715 139.701 171.180  0.00  0.00     0.050 A 
HETATM   13  C   UNK     0     109.647 138.322 172.616  0.00  0.00     0.132 C 
HETATM   14  C   UNK     0     106.582 140.913 168.959  0.00  0.00     0.020 A 
HETATM   15  C   UNK     0     106.498 140.502 170.508  0.00  0.00     0.040 A 
ENDROOT
BRANCH   4  16
HETATM   16  C   UNK     0     109.983 139.979 166.378  0.00  0.00     0.021 A 
HETATM   17  C   UNK     0     109.329 139.076 165.315  0.00  0.00     0.040 A 
HETATM   18  C   UNK     0     109.099 139.608 163.888  0.00  0.00     0.006 A 
HETATM   19  C   UNK     0     109.522 141.042 163.524  0.00  0.00     0.001 A 
HETATM   20  C   UNK     0     110.176 141.946 164.587  0.00  0.00     0.006 A 
HETATM   21  C   UNK     0     110.406 141.414 166.013  0.00  0.00     0.040 A 
ENDBRANCH   4  16
TORSDOF 1
ENDMDL
MODEL 6
REMARK VINA RESULT:      -7.5     41.010     43.908
REMARK  1 active torsions:
REMARK  status: ('A' for Active; 'I' for Inactive)
REMARK    1  A    between atoms: N_4  and  C_11 
ROOT
HETATM    1 Cl   UNK     0     105.856 141.601 169.018  0.00  0.00    -0.091 Cl
HETATM    2  O   UNK     0     112.308 140.249 164.785  0.00  0.00    -0.171 OA
HETATM    3  O   UNK     0     113.644 137.469 168.951  0.00  0.00    -0.171 OA
HETATM    4  N   UNK     0     110.403 140.388 166.560  0.00  0.00    -0.295 N 
HETATM    5  N   UNK     0     111.294 138.532 169.342  0.00  0.00    -0.307 N 
HETATM    6  C   UNK     0     109.610 140.167 167.861  0.00  0.00     0.059 A 
HETATM    7  C   UNK     0     110.006 139.341 169.099  0.00  0.00     0.052 A 
HETATM    8  C   UNK     0     112.723 138.930 166.996  0.00  0.00     0.091 A 
HETATM    9  C   UNK     0     111.788 139.838 166.175  0.00  0.00     0.201 A 
HETATM   10  C   UNK     0     112.503 138.349 168.405  0.00  0.00     0.198 A 
HETATM   11  C   UNK     0     108.208 140.944 167.806  0.00  0.00     0.079 A 
HETATM   12  C   UNK     0     109.029 139.235 170.367  0.00  0.00     0.050 A 
HETATM   13  C   UNK     0     111.385 137.810 170.699  0.00  0.00     0.132 C 
HETATM   14  C   UNK     0     107.206 140.861 169.055  0.00  0.00     0.020 A 
HETATM   15  C   UNK     0     107.619 140.000 170.345  0.00  0.00     0.040 A 
ENDROOT
BRANCH   4  16
HETATM   16  C   UNK     0     109.720 141.277 165.504  0.00  0.00     0.021 A 
HETATM   17  C   UNK     0     109.872 142.808 165.571  0.00  0.00     0.040 A 
HETATM   18  C   UNK     0     109.189 143.697 164.515  0.00  0.00     0.006 A 
HETATM   19  C   UNK     0     108.354 143.054 163.392  0.00  0.00     0.001 A 
HETATM   20  C   UNK     0     108.202 141.523 163.325  0.00  0.00     0.006 A 
HETATM   21  C   UNK     0     108.884 140.635 164.381  0.00  0.00     0.040 A 
ENDBRANCH   4  16
TORSDOF 1
ENDMDL
MODEL 7
REMARK VINA RESULT:      -6.6     42.332     44.477
REMARK  1 active torsions:
REMARK  status: ('A' for Active; 'I' for Inactive)
REMARK    1  A    between atoms: N_4  and  C_11 
ROOT
HETATM    1 Cl   UNK     0     130.717 159.246 163.749  0.00  0.00    -0.091 Cl
HETATM    2  O   UNK     0     131.993 151.530 164.208  0.00  0.00    -0.171 OA
HETATM    3  O   UNK     0     130.126 152.188 168.999  0.00  0.00    -0.171 OA
HETATM    4  N   UNK     0     131.394 154.044 164.562  0.00  0.00    -0.295 N 
HETATM    5  N   UNK     0     130.148 154.483 167.760  0.00  0.00    -0.307 N 
HETATM    6  C   UNK     0     130.908 155.341 165.233  0.00  0.00     0.059 A 
HETATM    7  C   UNK     0     130.353 155.537 166.656  0.00  0.00     0.052 A 
HETATM    8  C   UNK     0     131.026 152.144 166.550  0.00  0.00     0.091 A 
HETATM    9  C   UNK     0     131.447 152.621 165.148  0.00  0.00     0.201 A 
HETATM   10  C   UNK     0     130.448 152.973 167.713  0.00  0.00     0.198 A 
HETATM   11  C   UNK     0     131.043 156.582 164.224  0.00  0.00     0.079 A 
HETATM   12  C   UNK     0     129.895 156.986 167.169  0.00  0.00     0.050 A 
HETATM   13  C   UNK     0     129.567 155.008 169.086  0.00  0.00     0.132 C 
HETATM   14  C   UNK     0     130.594 158.045 164.704  0.00  0.00     0.020 A 
HETATM   15  C   UNK     0     130.016 158.249 166.187  0.00  0.00     0.040 A 
ENDROOT
BRANCH   4  16
HETATM   16  C   UNK     0     131.895 154.188 163.113  0.00  0.00     0.021 A 
HETATM   17  C   UNK     0     133.383 154.474 162.836  0.00  0.00     0.040 A 
HETATM   18  C   UNK     0     133.883 154.618 161.387  0.00  0.00     0.006 A 
HETATM   19  C   UNK     0     132.896 154.476 160.215  0.00  0.00     0.001 A 
HETATM   20  C   UNK     0     131.408 154.190 160.490  0.00  0.00     0.006 A 
HETATM   21  C   UNK     0     130.908 154.046 161.939  0.00  0.00     0.040 A 
ENDBRANCH   4  16
TORSDOF 1
ENDMDL
MODEL 8
REMARK VINA RESULT:      -6.5     46.190     48.337
REMARK  1 active torsions:
REMARK  status: ('A' for Active; 'I' for Inactive)
REMARK    1  A    between atoms: N_4  and  C_11 
ROOT
HETATM    1 Cl   UNK     0     128.060 136.787 133.734  0.00  0.00    -0.091 Cl
HETATM    2  O   UNK     0     134.057 139.611 129.558  0.00  0.00    -0.171 OA
HETATM    3  O   UNK     0     130.910 143.701 129.063  0.00  0.00    -0.171 OA
HETATM    4  N   UNK     0     131.829 139.143 130.829  0.00  0.00    -0.295 N 
HETATM    5  N   UNK     0     129.728 141.872 130.499  0.00  0.00    -0.307 N 
HETATM    6  C   UNK     0     130.412 139.338 131.400  0.00  0.00     0.059 A 
HETATM    7  C   UNK     0     129.477 140.553 131.253  0.00  0.00     0.052 A 
HETATM    8  C   UNK     0     132.282 141.519 129.471  0.00  0.00     0.091 A 
HETATM    9  C   UNK     0     132.661 140.113 129.971  0.00  0.00     0.201 A 
HETATM   10  C   UNK     0     130.976 142.302 129.706  0.00  0.00     0.198 A 
HETATM   11  C   UNK     0     129.958 138.047 132.236  0.00  0.00     0.079 A 
HETATM   12  C   UNK     0     128.024 140.561 131.932  0.00  0.00     0.050 A 
HETATM   13  C   UNK     0     128.579 142.897 130.544  0.00  0.00     0.132 C 
HETATM   14  C   UNK     0     128.511 138.020 132.928  0.00  0.00     0.020 A 
HETATM   15  C   UNK     0     127.537 139.285 132.775  0.00  0.00     0.040 A 
ENDROOT
BRANCH   4  16
HETATM   16  C   UNK     0     132.503 137.798 131.161  0.00  0.00     0.021 A 
HETATM   17  C   UNK     0     133.286 137.633 132.477  0.00  0.00     0.040 A 
HETATM   18  C   UNK     0     133.960 136.289 132.809  0.00  0.00     0.006 A 
HETATM   19  C   UNK     0     133.851 135.110 131.824  0.00  0.00     0.001 A 
HETATM   20  C   UNK     0     133.068 135.275 130.508  0.00  0.00     0.006 A 
HETATM   21  C   UNK     0     132.394 136.619 130.177  0.00  0.00     0.040 A 
ENDBRANCH   4  16
TORSDOF 1
ENDMDL
MODEL 9
REMARK VINA RESULT:      -6.4     42.303     44.245
REMARK  1 active torsions:
REMARK  status: ('A' for Active; 'I' for Inactive)
REMARK    1  A    between atoms: N_4  and  C_11 
ROOT
HETATM    1 Cl   UNK     0     118.775 119.395 128.197  0.00  0.00    -0.091 Cl
HETATM    2  O   UNK     0     120.385 114.425 134.034  0.00  0.00    -0.171 OA
HETATM    3  O   UNK     0     123.589 118.230 135.490  0.00  0.00    -0.171 OA
HETATM    4  N   UNK     0     120.209 116.396 132.336  0.00  0.00    -0.295 N 
HETATM    5  N   UNK     0     122.348 118.937 133.308  0.00  0.00    -0.307 N 
HETATM    6  C   UNK     0     120.456 117.756 131.657  0.00  0.00     0.059 A 
HETATM    7  C   UNK     0     121.408 118.887 132.090  0.00  0.00     0.052 A 
HETATM    8  C   UNK     0     121.903 116.486 134.532  0.00  0.00     0.091 A 
HETATM    9  C   UNK     0     120.853 115.831 133.615  0.00  0.00     0.201 A 
HETATM   10  C   UNK     0     122.568 117.868 134.395  0.00  0.00     0.198 A 
HETATM   11  C   UNK     0     119.550 117.901 130.341  0.00  0.00     0.079 A 
HETATM   12  C   UNK     0     121.520 120.240 131.236  0.00  0.00     0.050 A 
HETATM   13  C   UNK     0     123.177 120.225 133.460  0.00  0.00     0.132 C 
HETATM   14  C   UNK     0     119.637 119.241 129.463  0.00  0.00     0.020 A 
HETATM   15  C   UNK     0     120.629 120.419 129.914  0.00  0.00     0.040 A 
ENDROOT
BRANCH   4  16
HETATM   16  C   UNK     0     119.182 115.480 131.644  0.00  0.00     0.021 A 
HETATM   17  C   UNK     0     119.656 114.406 130.648  0.00  0.00     0.040 A 
HETATM   18  C   UNK     0     118.629 113.490 129.956  0.00  0.00     0.006 A 
HETATM   19  C   UNK     0     117.129 113.649 130.261  0.00  0.00     0.001 A 
HETATM   20  C   UNK     0     116.654 114.723 131.258  0.00  0.00     0.006 A 
HETATM   21  C   UNK     0     117.681 115.638 131.949  0.00  0.00     0.040 A 
ENDBRANCH   4  16
TORSDOF 1
ENDMDL
MODEL 10
REMARK VINA RESULT:      -6.2     49.333     51.325
REMARK  1 active torsions:
REMARK  status: ('A' for Active; 'I' for Inactive)
REMARK    1  A    between atoms: N_4  and  C_11 
ROOT
HETATM    1 Cl   UNK     0     117.941 127.995 130.249  0.00  0.00    -0.091 Cl
HETATM    2  O   UNK     0     113.977 134.723 130.879  0.00  0.00    -0.171 OA
HETATM    3  O   UNK     0     118.747 136.716 131.259  0.00  0.00    -0.171 OA
HETATM    4  N   UNK     0     115.730 132.799 130.719  0.00  0.00    -0.295 N 
HETATM    5  N   UNK     0     118.915 134.129 130.972  0.00  0.00    -0.307 N 
HETATM    6  C   UNK     0     117.083 132.065 130.680  0.00  0.00     0.059 A 
HETATM    7  C   UNK     0     118.501 132.657 130.793  0.00  0.00     0.052 A 
HETATM    8  C   UNK     0     116.475 135.452 131.042  0.00  0.00     0.091 A 
HETATM    9  C   UNK     0     115.460 134.306 130.880  0.00  0.00     0.201 A 
HETATM   10  C   UNK     0     118.013 135.373 131.083  0.00  0.00     0.198 A 
HETATM   11  C   UNK     0     116.863 130.486 130.495  0.00  0.00     0.079 A 
HETATM   12  C   UNK     0     119.795 131.712 130.728  0.00  0.00     0.050 A 
HETATM   13  C   UNK     0     120.430 134.393 131.051  0.00  0.00     0.132 C 
HETATM   14  C   UNK     0     118.135 129.512 130.426  0.00  0.00     0.020 A 
HETATM   15  C   UNK     0     119.612 130.129 130.544  0.00  0.00     0.040 A 
ENDROOT
BRANCH   4  16
HETATM   16  C   UNK     0     114.482 131.907 130.578  0.00  0.00     0.021 A 
HETATM   17  C   UNK     0     113.876 131.645 129.186  0.00  0.00     0.040 A 
HETATM   18  C   UNK     0     112.628 130.753 129.045  0.00  0.00     0.006 A 
HETATM   19  C   UNK     0     111.987 130.125 130.295  0.00  0.00     0.001 A 
HETATM   20  C   UNK     0     112.593 130.387 131.687  0.00  0.00     0.006 A 
HETATM   21  C   UNK     0     113.840 131.278 131.828  0.00  0.00     0.040 A 
ENDBRANCH   4  16
TORSDOF 1
ENDMDL
