MODEL 1
REMARK VINA RESULT:      -9.4      0.000      0.000
REMARK  1 active torsions:
REMARK  status: ('A' for Active; 'I' for Inactive)
REMARK    1  A    between atoms: N_7  and  C_15 
ROOT
HETATM    1 Cl   UNK     0     144.787 111.629 171.132  0.00  0.00    -0.143 Cl
HETATM    2  O   UNK     0     140.391 114.267 165.631  0.00  0.00    -0.168 OA
HETATM    3  N   UNK     0     141.773 112.451 166.892  0.00  0.00    -0.223 NA
HETATM    4  N   UNK     0     142.415 115.032 169.105  0.00  0.00    -0.240 NA
HETATM    5  C   UNK     0     143.297 112.403 169.210  0.00  0.00     0.042 A 
HETATM    6  C   UNK     0     142.669 111.780 167.949  0.00  0.00     0.064 A 
HETATM    7  C   UNK     0     143.184 113.850 169.724  0.00  0.00     0.080 A 
HETATM    8  C   UNK     0     143.940 114.156 171.031  0.00  0.00     0.001 A 
HETATM    9  C   UNK     0     144.210 111.525 170.195  0.00  0.00     0.067 A 
HETATM   10  C   UNK     0     142.911 110.236 167.586  0.00  0.00     0.052 A 
HETATM   11  C   UNK     0     141.570 115.059 167.818  0.00  0.00     0.146 A 
HETATM   12  C   UNK     0     144.472 109.978 169.862  0.00  0.00     0.114 A 
HETATM   13  C   UNK     0     141.284 113.910 166.833  0.00  0.00     0.232 A 
HETATM   14  C   UNK     0     143.818 109.330 168.549  0.00  0.00     0.058 A 
HETATM   15  C   UNK     0     144.742 113.045 171.735  0.00  0.00     0.022 A 
HETATM   16  C   UNK     0     143.894 115.573 171.633  0.00  0.00     0.028 A 
HETATM   17  C   UNK     0     145.497 113.351 173.042  0.00  0.00     0.037 A 
HETATM   18  C   UNK     0     144.650 115.878 172.940  0.00  0.00     0.005 A 
HETATM   19  C   UNK     0     145.451 114.768 173.644  0.00  0.00     0.006 A 
ENDROOT
BRANCH  12  20
HETATM   20  N   UNK     0     145.345 109.121 170.798  0.00  0.00    -0.117 N 
HETATM   21  O   UNK     0     144.700 108.360 171.971  0.00  0.00    -0.532 OA
HETATM   22  O   UNK     0     146.864 109.026 170.559  0.00  0.00    -0.532 OA
ENDBRANCH  12  20
TORSDOF 1
ENDMDL
MODEL 2
REMARK VINA RESULT:      -9.3     41.125     44.159
REMARK  1 active torsions:
REMARK  status: ('A' for Active; 'I' for Inactive)
REMARK    1  A    between atoms: N_7  and  C_15 
ROOT
HETATM    1 Cl   UNK     0     110.893 139.038 168.406  0.00  0.00    -0.143 Cl
HETATM    2  O   UNK     0     104.222 142.489 168.776  0.00  0.00    -0.168 OA
HETATM    3  N   UNK     0     106.418 141.700 167.613  0.00  0.00    -0.223 NA
HETATM    4  N   UNK     0     107.096 140.306 170.706  0.00  0.00    -0.240 NA
HETATM    5  C   UNK     0     108.644 140.244 168.404  0.00  0.00     0.042 A 
HETATM    6  C   UNK     0     107.792 141.037 167.396  0.00  0.00     0.064 A 
HETATM    7  C   UNK     0     108.335 139.919 169.877  0.00  0.00     0.080 A 
HETATM    8  C   UNK     0     109.405 139.098 170.619  0.00  0.00     0.001 A 
HETATM    9  C   UNK     0     110.062 139.626 167.977  0.00  0.00     0.067 A 
HETATM   10  C   UNK     0     108.297 141.267 165.891  0.00  0.00     0.052 A 
HETATM   11  C   UNK     0     105.861 141.114 170.267  0.00  0.00     0.146 A 
HETATM   12  C   UNK     0     110.598 139.838 166.480  0.00  0.00     0.114 A 
HETATM   13  C   UNK     0     105.559 141.735 168.890  0.00  0.00     0.232 A 
HETATM   14  C   UNK     0     109.710 140.663 165.431  0.00  0.00     0.058 A 
HETATM   15  C   UNK     0     110.685 138.657 169.884  0.00  0.00     0.022 A 
HETATM   16  C   UNK     0     109.196 138.717 172.097  0.00  0.00     0.028 A 
HETATM   17  C   UNK     0     111.755 137.836 170.627  0.00  0.00     0.037 A 
HETATM   18  C   UNK     0     110.268 137.896 172.839  0.00  0.00     0.005 A 
HETATM   19  C   UNK     0     111.546 137.455 172.104  0.00  0.00     0.006 A 
ENDROOT
BRANCH  12  20
HETATM   20  N   UNK     0     111.958 139.251 166.054  0.00  0.00    -0.117 N 
HETATM   21  O   UNK     0     113.231 140.111 166.153  0.00  0.00    -0.532 OA
HETATM   22  O   UNK     0     112.042 137.806 165.529  0.00  0.00    -0.532 OA
ENDBRANCH  12  20
TORSDOF 1
ENDMDL
MODEL 3
REMARK VINA RESULT:      -9.0     25.724     27.655
REMARK  1 active torsions:
REMARK  status: ('A' for Active; 'I' for Inactive)
REMARK    1  A    between atoms: N_7  and  C_15 
ROOT
HETATM    1 Cl   UNK     0     154.578 138.793 167.585  0.00  0.00    -0.143 Cl
HETATM    2  O   UNK     0     150.042 135.317 162.697  0.00  0.00    -0.168 OA
HETATM    3  N   UNK     0     152.334 136.153 163.619  0.00  0.00    -0.223 NA
HETATM    4  N   UNK     0     150.395 137.432 166.183  0.00  0.00    -0.240 NA
HETATM    5  C   UNK     0     153.146 137.584 165.854  0.00  0.00     0.042 A 
HETATM    6  C   UNK     0     153.376 136.827 164.532  0.00  0.00     0.064 A 
HETATM    7  C   UNK     0     151.820 137.853 166.588  0.00  0.00     0.080 A 
HETATM    8  C   UNK     0     151.934 138.648 167.902  0.00  0.00     0.001 A 
HETATM    9  C   UNK     0     154.378 138.219 166.662  0.00  0.00     0.067 A 
HETATM   10  C   UNK     0     154.851 136.654 163.927  0.00  0.00     0.052 A 
HETATM   11  C   UNK     0     149.944 136.639 164.943  0.00  0.00     0.146 A 
HETATM   12  C   UNK     0     155.866 138.064 166.087  0.00  0.00     0.114 A 
HETATM   13  C   UNK     0     150.807 136.069 163.801  0.00  0.00     0.232 A 
HETATM   14  C   UNK     0     156.104 137.277 164.710  0.00  0.00     0.058 A 
HETATM   15  C   UNK     0     153.313 139.118 168.401  0.00  0.00     0.022 A 
HETATM   16  C   UNK     0     150.668 138.973 168.718  0.00  0.00     0.028 A 
HETATM   17  C   UNK     0     153.427 139.913 169.715  0.00  0.00     0.037 A 
HETATM   18  C   UNK     0     150.783 139.768 170.032  0.00  0.00     0.005 A 
HETATM   19  C   UNK     0     152.161 140.238 170.530  0.00  0.00     0.006 A 
ENDROOT
BRANCH  12  20
HETATM   20  N   UNK     0     157.060 138.669 166.851  0.00  0.00    -0.117 N 
HETATM   21  O   UNK     0     157.528 140.102 166.538  0.00  0.00    -0.532 OA
HETATM   22  O   UNK     0     157.783 137.839 167.927  0.00  0.00    -0.532 OA
ENDBRANCH  12  20
TORSDOF 1
ENDMDL
MODEL 4
REMARK VINA RESULT:      -8.9     41.830     44.537
REMARK  1 active torsions:
REMARK  status: ('A' for Active; 'I' for Inactive)
REMARK    1  A    between atoms: N_7  and  C_15 
ROOT
HETATM    1 Cl   UNK     0     131.676 153.156 164.908  0.00  0.00    -0.143 Cl
HETATM    2  O   UNK     0     132.996 160.555 164.666  0.00  0.00    -0.168 OA
HETATM    3  N   UNK     0     132.963 158.124 163.724  0.00  0.00    -0.223 NA
HETATM    4  N   UNK     0     131.622 157.358 166.820  0.00  0.00    -0.240 NA
HETATM    5  C   UNK     0     132.170 155.651 164.702  0.00  0.00     0.042 A 
HETATM    6  C   UNK     0     132.745 156.602 163.636  0.00  0.00     0.064 A 
HETATM    7  C   UNK     0     131.670 155.988 166.119  0.00  0.00     0.080 A 
HETATM    8  C   UNK     0     131.149 154.796 166.944  0.00  0.00     0.001 A 
HETATM    9  C   UNK     0     132.024 154.080 164.411  0.00  0.00     0.067 A 
HETATM   10  C   UNK     0     133.215 156.048 162.205  0.00  0.00     0.052 A 
HETATM   11  C   UNK     0     132.062 158.731 166.278  0.00  0.00     0.146 A 
HETATM   12  C   UNK     0     132.483 153.492 162.992  0.00  0.00     0.114 A 
HETATM   13  C   UNK     0     132.659 159.072 164.899  0.00  0.00     0.232 A 
HETATM   14  C   UNK     0     133.082 154.483 161.882  0.00  0.00     0.058 A 
HETATM   15  C   UNK     0     131.152 153.380 166.339  0.00  0.00     0.022 A 
HETATM   16  C   UNK     0     130.625 155.021 168.375  0.00  0.00     0.028 A 
HETATM   17  C   UNK     0     130.631 152.189 167.164  0.00  0.00     0.037 A 
HETATM   18  C   UNK     0     130.104 153.829 169.200  0.00  0.00     0.005 A 
HETATM   19  C   UNK     0     130.107 152.414 168.595  0.00  0.00     0.006 A 
ENDROOT
BRANCH  12  20
HETATM   20  N   UNK     0     132.349 151.986 162.697  0.00  0.00    -0.117 N 
HETATM   21  O   UNK     0     133.305 150.983 163.368  0.00  0.00    -0.532 OA
HETATM   22  O   UNK     0     131.260 151.485 161.731  0.00  0.00    -0.532 OA
ENDBRANCH  12  20
TORSDOF 1
ENDMDL
MODEL 5
REMARK VINA RESULT:      -8.7     41.142     44.052
REMARK  1 active torsions:
REMARK  status: ('A' for Active; 'I' for Inactive)
REMARK    1  A    between atoms: N_7  and  C_15 
ROOT
HETATM    1 Cl   UNK     0     110.868 138.719 169.141  0.00  0.00    -0.143 Cl
HETATM    2  O   UNK     0     104.448 142.634 169.229  0.00  0.00    -0.168 OA
HETATM    3  N   UNK     0     106.212 140.957 170.166  0.00  0.00    -0.223 NA
HETATM    4  N   UNK     0     107.915 141.725 167.253  0.00  0.00    -0.240 NA
HETATM    5  C   UNK     0     108.661 139.991 169.288  0.00  0.00     0.042 A 
HETATM    6  C   UNK     0     107.486 140.099 170.278  0.00  0.00     0.064 A 
HETATM    7  C   UNK     0     108.852 140.715 167.943  0.00  0.00     0.080 A 
HETATM    8  C   UNK     0     110.152 140.385 167.185  0.00  0.00     0.001 A 
HETATM    9  C   UNK     0     109.909 139.030 169.593  0.00  0.00     0.067 A 
HETATM   10  C   UNK     0     107.477 139.253 171.641  0.00  0.00     0.052 A 
HETATM   11  C   UNK     0     106.556 142.261 167.740  0.00  0.00     0.146 A 
HETATM   12  C   UNK     0     109.932 138.169 170.946  0.00  0.00     0.114 A 
HETATM   13  C   UNK     0     105.798 141.919 169.037  0.00  0.00     0.232 A 
HETATM   14  C   UNK     0     108.708 138.282 171.977  0.00  0.00     0.058 A 
HETATM   15  C   UNK     0     111.160 139.387 167.784  0.00  0.00     0.022 A 
HETATM   16  C   UNK     0     110.443 141.053 165.828  0.00  0.00     0.028 A 
HETATM   17  C   UNK     0     112.460 139.057 167.027  0.00  0.00     0.037 A 
HETATM   18  C   UNK     0     111.743 140.722 165.071  0.00  0.00     0.005 A 
HETATM   19  C   UNK     0     112.751 139.725 165.670  0.00  0.00     0.006 A 
ENDROOT
BRANCH  12  20
HETATM   20  N   UNK     0     111.123 137.241 171.254  0.00  0.00    -0.117 N 
HETATM   21  O   UNK     0     112.202 137.681 172.260  0.00  0.00    -0.532 OA
HETATM   22  O   UNK     0     111.232 135.873 170.555  0.00  0.00    -0.532 OA
ENDBRANCH  12  20
TORSDOF 1
ENDMDL
MODEL 6
REMARK VINA RESULT:      -8.6     41.240     44.064
REMARK  1 active torsions:
REMARK  status: ('A' for Active; 'I' for Inactive)
REMARK    1  A    between atoms: N_7  and  C_15 
ROOT
HETATM    1 Cl   UNK     0     108.025 139.808 170.550  0.00  0.00    -0.143 Cl
HETATM    2  O   UNK     0     112.684 139.318 164.668  0.00  0.00    -0.168 OA
HETATM    3  N   UNK     0     110.500 140.023 165.907  0.00  0.00    -0.223 NA
HETATM    4  N   UNK     0     111.981 138.438 168.603  0.00  0.00    -0.240 NA
HETATM    5  C   UNK     0     109.516 139.709 168.482  0.00  0.00     0.042 A 
HETATM    6  C   UNK     0     109.453 140.198 167.023  0.00  0.00     0.064 A 
HETATM    7  C   UNK     0     110.641 138.927 169.185  0.00  0.00     0.080 A 
HETATM    8  C   UNK     0     110.393 138.587 170.667  0.00  0.00     0.001 A 
HETATM    9  C   UNK     0     108.308 139.996 169.499  0.00  0.00     0.067 A 
HETATM   10  C   UNK     0     108.179 141.006 166.479  0.00  0.00     0.052 A 
HETATM   11  C   UNK     0     112.527 138.613 167.173  0.00  0.00     0.146 A 
HETATM   12  C   UNK     0     107.019 140.801 168.988  0.00  0.00     0.114 A 
HETATM   13  C   UNK     0     111.868 139.318 165.973  0.00  0.00     0.232 A 
HETATM   14  C   UNK     0     106.954 141.309 167.469  0.00  0.00     0.058 A 
HETATM   15  C   UNK     0     109.085 139.027 171.350  0.00  0.00     0.022 A 
HETATM   16  C   UNK     0     111.454 137.806 171.465  0.00  0.00     0.028 A 
HETATM   17  C   UNK     0     108.837 138.688 172.831  0.00  0.00     0.037 A 
HETATM   18  C   UNK     0     111.205 137.466 172.947  0.00  0.00     0.005 A 
HETATM   19  C   UNK     0     109.898 137.907 173.629  0.00  0.00     0.006 A 
ENDROOT
BRANCH  12  20
HETATM   20  N   UNK     0     105.851 141.084 169.952  0.00  0.00    -0.117 N 
HETATM   21  O   UNK     0     104.709 140.061 170.098  0.00  0.00    -0.532 OA
HETATM   22  O   UNK     0     105.825 142.389 170.768  0.00  0.00    -0.532 OA
ENDBRANCH  12  20
TORSDOF 1
ENDMDL
MODEL 7
REMARK VINA RESULT:      -8.5     41.543     44.614
REMARK  1 active torsions:
REMARK  status: ('A' for Active; 'I' for Inactive)
REMARK    1  A    between atoms: N_7  and  C_15 
ROOT
HETATM    1 Cl   UNK     0     108.052 139.684 170.899  0.00  0.00    -0.143 Cl
HETATM    2  O   UNK     0     110.377 141.038 163.877  0.00  0.00    -0.168 OA
HETATM    3  N   UNK     0     108.720 141.158 165.887  0.00  0.00    -0.223 NA
HETATM    4  N   UNK     0     111.163 139.320 167.507  0.00  0.00    -0.240 NA
HETATM    5  C   UNK     0     108.727 140.210 168.495  0.00  0.00     0.042 A 
HETATM    6  C   UNK     0     108.121 140.956 167.292  0.00  0.00     0.064 A 
HETATM    7  C   UNK     0     110.080 139.482 168.591  0.00  0.00     0.080 A 
HETATM    8  C   UNK     0     110.393 138.829 169.950  0.00  0.00     0.001 A 
HETATM    9  C   UNK     0     107.934 140.111 169.887  0.00  0.00     0.067 A 
HETATM   10  C   UNK     0     106.681 141.656 167.396  0.00  0.00     0.052 A 
HETATM   11  C   UNK     0     111.159 139.846 166.060  0.00  0.00     0.146 A 
HETATM   12  C   UNK     0     106.493 140.799 170.026  0.00  0.00     0.114 A 
HETATM   13  C   UNK     0     110.072 140.664 165.339  0.00  0.00     0.232 A 
HETATM   14  C   UNK     0     105.862 141.577 168.773  0.00  0.00     0.058 A 
HETATM   15  C   UNK     0     109.379 138.930 171.105  0.00  0.00     0.022 A 
HETATM   16  C   UNK     0     111.720 138.074 170.155  0.00  0.00     0.028 A 
HETATM   17  C   UNK     0     109.691 138.277 172.464  0.00  0.00     0.037 A 
HETATM   18  C   UNK     0     112.032 137.422 171.515  0.00  0.00     0.005 A 
HETATM   19  C   UNK     0     111.018 137.523 172.669  0.00  0.00     0.006 A 
ENDROOT
BRANCH  12  20
HETATM   20  N   UNK     0     105.719 140.714 171.355  0.00  0.00    -0.117 N 
HETATM   21  O   UNK     0     105.915 141.798 172.431  0.00  0.00    -0.532 OA
HETATM   22  O   UNK     0     104.749 139.545 171.607  0.00  0.00    -0.532 OA
ENDBRANCH  12  20
TORSDOF 1
ENDMDL
MODEL 8
REMARK VINA RESULT:      -8.4     41.657     44.669
REMARK  1 active torsions:
REMARK  status: ('A' for Active; 'I' for Inactive)
REMARK    1  A    between atoms: N_7  and  C_15 
ROOT
HETATM    1 Cl   UNK     0     131.166 153.301 166.203  0.00  0.00    -0.143 Cl
HETATM    2  O   UNK     0     132.833 160.512 164.873  0.00  0.00    -0.168 OA
HETATM    3  N   UNK     0     131.832 158.526 166.233  0.00  0.00    -0.223 NA
HETATM    4  N   UNK     0     133.023 156.629 163.596  0.00  0.00    -0.240 NA
HETATM    5  C   UNK     0     131.673 155.779 165.867  0.00  0.00     0.042 A 
HETATM    6  C   UNK     0     131.427 157.094 166.631  0.00  0.00     0.064 A 
HETATM    7  C   UNK     0     132.383 155.572 164.517  0.00  0.00     0.080 A 
HETATM    8  C   UNK     0     132.463 154.117 164.020  0.00  0.00     0.001 A 
HETATM    9  C   UNK     0     131.167 154.376 166.459  0.00  0.00     0.067 A 
HETATM   10  C   UNK     0     130.659 157.097 168.040  0.00  0.00     0.052 A 
HETATM   11  C   UNK     0     133.111 158.153 163.799  0.00  0.00     0.146 A 
HETATM   12  C   UNK     0     130.396 154.343 167.864  0.00  0.00     0.114 A 
HETATM   13  C   UNK     0     132.581 158.997 164.972  0.00  0.00     0.232 A 
HETATM   14  C   UNK     0     130.140 155.712 168.660  0.00  0.00     0.058 A 
HETATM   15  C   UNK     0     131.855 152.981 164.864  0.00  0.00     0.022 A 
HETATM   16  C   UNK     0     133.153 153.797 162.680  0.00  0.00     0.028 A 
HETATM   17  C   UNK     0     131.936 151.525 164.367  0.00  0.00     0.037 A 
HETATM   18  C   UNK     0     133.233 152.341 162.185  0.00  0.00     0.005 A 
HETATM   19  C   UNK     0     132.625 151.206 163.028  0.00  0.00     0.006 A 
ENDROOT
BRANCH  12  20
HETATM   20  N   UNK     0     129.903 153.004 168.446  0.00  0.00    -0.117 N 
HETATM   21  O   UNK     0     128.877 152.158 167.670  0.00  0.00    -0.532 OA
HETATM   22  O   UNK     0     130.438 152.512 169.804  0.00  0.00    -0.532 OA
ENDBRANCH  12  20
TORSDOF 1
ENDMDL
MODEL 9
REMARK VINA RESULT:      -7.9     60.377     63.150
REMARK  1 active torsions:
REMARK  status: ('A' for Active; 'I' for Inactive)
REMARK    1  A    between atoms: N_7  and  C_15 
ROOT
HETATM    1 Cl   UNK     0     121.705 156.189 129.428  0.00  0.00    -0.143 Cl
HETATM    2  O   UNK     0     123.197 149.451 126.440  0.00  0.00    -0.168 OA
HETATM    3  N   UNK     0     123.495 151.406 128.139  0.00  0.00    -0.223 NA
HETATM    4  N   UNK     0     120.971 152.882 126.290  0.00  0.00    -0.240 NA
HETATM    5  C   UNK     0     122.304 153.885 128.508  0.00  0.00     0.042 A 
HETATM    6  C   UNK     0     123.295 152.757 128.852  0.00  0.00     0.064 A 
HETATM    7  C   UNK     0     121.270 153.941 127.368  0.00  0.00     0.080 A 
HETATM    8  C   UNK     0     120.423 155.225 127.297  0.00  0.00     0.001 A 
HETATM    9  C   UNK     0     122.251 155.229 129.383  0.00  0.00     0.067 A 
HETATM   10  C   UNK     0     124.300 152.894 130.093  0.00  0.00     0.052 A 
HETATM   11  C   UNK     0     121.631 151.506 126.086  0.00  0.00     0.146 A 
HETATM   12  C   UNK     0     123.243 155.399 130.631  0.00  0.00     0.114 A 
HETATM   13  C   UNK     0     122.755 150.849 126.909  0.00  0.00     0.232 A 
HETATM   14  C   UNK     0     124.274 154.224 130.989  0.00  0.00     0.058 A 
HETATM   15  C   UNK     0     120.640 156.350 128.327  0.00  0.00     0.022 A 
HETATM   16  C   UNK     0     119.359 155.385 126.195  0.00  0.00     0.028 A 
HETATM   17  C   UNK     0     119.793 157.634 128.255  0.00  0.00     0.037 A 
HETATM   18  C   UNK     0     118.512 156.670 126.124  0.00  0.00     0.005 A 
HETATM   19  C   UNK     0     118.730 157.793 127.154  0.00  0.00     0.006 A 
ENDROOT
BRANCH  12  20
HETATM   20  N   UNK     0     123.205 156.683 131.482  0.00  0.00    -0.117 N 
HETATM   21  O   UNK     0     122.778 156.615 132.960  0.00  0.00    -0.532 OA
HETATM   22  O   UNK     0     123.594 158.034 130.853  0.00  0.00    -0.532 OA
ENDBRANCH  12  20
TORSDOF 1
ENDMDL
MODEL 10
REMARK VINA RESULT:      -7.7     25.583     27.815
REMARK  1 active torsions:
REMARK  status: ('A' for Active; 'I' for Inactive)
REMARK    1  A    between atoms: N_7  and  C_15 
ROOT
HETATM    1 Cl   UNK     0     154.203 138.917 167.767  0.00  0.00    -0.143 Cl
HETATM    2  O   UNK     0     149.887 135.194 162.862  0.00  0.00    -0.168 OA
HETATM    3  N   UNK     0     150.352 136.696 164.942  0.00  0.00    -0.223 NA
HETATM    4  N   UNK     0     153.662 136.243 164.042  0.00  0.00    -0.240 NA
HETATM    5  C   UNK     0     152.631 137.696 166.170  0.00  0.00     0.042 A 
HETATM    6  C   UNK     0     151.111 137.500 166.015  0.00  0.00     0.064 A 
HETATM    7  C   UNK     0     153.766 137.137 165.293  0.00  0.00     0.080 A 
HETATM    8  C   UNK     0     155.194 137.522 165.722  0.00  0.00     0.001 A 
HETATM    9  C   UNK     0     153.229 138.580 167.369  0.00  0.00     0.067 A 
HETATM   10  C   UNK     0     150.084 138.174 167.046  0.00  0.00     0.052 A 
HETATM   11  C   UNK     0     152.398 135.689 163.361  0.00  0.00     0.146 A 
HETATM   12  C   UNK     0     152.230 139.268 168.418  0.00  0.00     0.114 A 
HETATM   13  C   UNK     0     150.925 135.890 163.761  0.00  0.00     0.232 A 
HETATM   14  C   UNK     0     150.648 139.064 168.255  0.00  0.00     0.058 A 
HETATM   15  C   UNK     0     155.413 138.412 166.960  0.00  0.00     0.022 A 
HETATM   16  C   UNK     0     156.404 137.016 164.914  0.00  0.00     0.028 A 
HETATM   17  C   UNK     0     156.841 138.797 167.389  0.00  0.00     0.037 A 
HETATM   18  C   UNK     0     157.832 137.401 165.344  0.00  0.00     0.005 A 
HETATM   19  C   UNK     0     158.050 138.292 166.581  0.00  0.00     0.006 A 
ENDROOT
BRANCH  12  20
HETATM   20  N   UNK     0     152.788 140.120 169.574  0.00  0.00    -0.117 N 
HETATM   21  O   UNK     0     153.074 141.618 169.358  0.00  0.00    -0.532 OA
HETATM   22  O   UNK     0     153.058 139.474 170.945  0.00  0.00    -0.532 OA
ENDBRANCH  12  20
TORSDOF 1
ENDMDL
