MODEL 1
REMARK VINA RESULT:      -8.1      0.000      0.000
REMARK  1 active torsions:
REMARK  status: ('A' for Active; 'I' for Inactive)
REMARK    1  A    between atoms: C_7  and  C_10 
ROOT
HETATM    1 Cl   UNK     0     130.922 150.566 165.844  0.00  0.00    -0.091 Cl
HETATM    2  O   UNK     0     130.909 158.822 168.939  0.00  0.00    -0.169 OA
HETATM    3  N   UNK     0     130.773 156.275 168.391  0.00  0.00    -0.307 N 
HETATM    4  N   UNK     0     131.966 157.274 165.299  0.00  0.00    -0.241 NA
HETATM    5  C   UNK     0     131.340 154.714 166.168  0.00  0.00     0.011 A 
HETATM    6  C   UNK     0     130.871 154.948 167.616  0.00  0.00     0.037 A 
HETATM    7  C   UNK     0     131.828 155.749 165.137  0.00  0.00     0.071 A 
HETATM    8  C   UNK     0     131.651 158.140 166.534  0.00  0.00     0.144 A 
HETATM    9  C   UNK     0     131.120 157.696 167.909  0.00  0.00     0.214 A 
HETATM   10  C   UNK     0     131.368 153.238 165.540  0.00  0.00     0.062 A 
HETATM   11  C   UNK     0     130.397 153.723 168.536  0.00  0.00     0.049 A 
HETATM   12  C   UNK     0     130.260 156.168 169.838  0.00  0.00     0.132 C 
HETATM   13  C   UNK     0     130.901 151.989 166.432  0.00  0.00     0.018 A 
HETATM   14  C   UNK     0     130.412 152.233 167.941  0.00  0.00     0.040 A 
ENDROOT
BRANCH   7  15
HETATM   15  C   UNK     0     132.230 155.185 163.762  0.00  0.00    -0.027 A 
HETATM   16  C   UNK     0     133.714 154.937 163.435  0.00  0.00     0.024 A 
HETATM   17  C   UNK     0     134.116 154.373 162.060  0.00  0.00     0.004 A 
HETATM   18  C   UNK     0     133.034 154.056 161.012  0.00  0.00     0.001 A 
HETATM   19  C   UNK     0     131.549 154.303 161.338  0.00  0.00     0.004 A 
HETATM   20  C   UNK     0     131.147 154.868 162.714  0.00  0.00     0.024 A 
ENDBRANCH   7  15
TORSDOF 1
ENDMDL
MODEL 2
REMARK VINA RESULT:      -7.5      3.453      5.425
REMARK  1 active torsions:
REMARK  status: ('A' for Active; 'I' for Inactive)
REMARK    1  A    between atoms: C_7  and  C_10 
ROOT
HETATM    1 Cl   UNK     0     125.472 155.399 166.424  0.00  0.00    -0.091 Cl
HETATM    2  O   UNK     0     130.270 159.860 172.324  0.00  0.00    -0.169 OA
HETATM    3  N   UNK     0     128.564 158.821 170.647  0.00  0.00    -0.307 N 
HETATM    4  N   UNK     0     131.072 156.490 170.143  0.00  0.00    -0.241 NA
HETATM    5  C   UNK     0     128.567 156.621 168.956  0.00  0.00     0.011 A 
HETATM    6  C   UNK     0     127.947 157.874 169.601  0.00  0.00     0.037 A 
HETATM    7  C   UNK     0     129.958 156.005 169.197  0.00  0.00     0.071 A 
HETATM    8  C   UNK     0     131.070 157.711 171.082  0.00  0.00     0.144 A 
HETATM    9  C   UNK     0     129.954 158.748 171.306  0.00  0.00     0.214 A 
HETATM   10  C   UNK     0     127.751 155.761 167.875  0.00  0.00     0.062 A 
HETATM   11  C   UNK     0     126.468 158.355 169.210  0.00  0.00     0.049 A 
HETATM   12  C   UNK     0     127.674 159.995 171.093  0.00  0.00     0.132 C 
HETATM   13  C   UNK     0     126.269 156.213 167.460  0.00  0.00     0.018 A 
HETATM   14  C   UNK     0     125.622 157.519 168.132  0.00  0.00     0.040 A 
ENDROOT
BRANCH   7  15
HETATM   15  C   UNK     0     130.277 154.736 168.385  0.00  0.00    -0.027 A 
HETATM   16  C   UNK     0     130.885 154.856 166.976  0.00  0.00     0.024 A 
HETATM   17  C   UNK     0     131.204 153.587 166.164  0.00  0.00     0.004 A 
HETATM   18  C   UNK     0     130.915 152.198 166.761  0.00  0.00     0.001 A 
HETATM   19  C   UNK     0     130.307 152.077 168.171  0.00  0.00     0.004 A 
HETATM   20  C   UNK     0     129.988 153.346 168.983  0.00  0.00     0.024 A 
ENDBRANCH   7  15
TORSDOF 1
ENDMDL
MODEL 3
REMARK VINA RESULT:      -7.4      3.553      6.817
REMARK  1 active torsions:
REMARK  status: ('A' for Active; 'I' for Inactive)
REMARK    1  A    between atoms: C_7  and  C_10 
ROOT
HETATM    1 Cl   UNK     0     131.900 158.965 166.028  0.00  0.00    -0.091 Cl
HETATM    2  O   UNK     0     132.516 151.042 162.211  0.00  0.00    -0.169 OA
HETATM    3  N   UNK     0     132.474 153.531 162.988  0.00  0.00    -0.307 N 
HETATM    4  N   UNK     0     131.281 152.183 165.944  0.00  0.00    -0.241 NA
HETATM    5  C   UNK     0     131.759 154.846 165.324  0.00  0.00     0.011 A 
HETATM    6  C   UNK     0     132.274 154.774 163.875  0.00  0.00     0.037 A 
HETATM    7  C   UNK     0     131.317 153.693 166.245  0.00  0.00     0.071 A 
HETATM    8  C   UNK     0     131.678 151.454 164.646  0.00  0.00     0.144 A 
HETATM    9  C   UNK     0     132.209 152.054 163.331  0.00  0.00     0.214 A 
HETATM   10  C   UNK     0     131.621 156.254 166.081  0.00  0.00     0.062 A 
HETATM   11  C   UNK     0     132.687 156.105 163.081  0.00  0.00     0.049 A 
HETATM   12  C   UNK     0     133.011 153.802 161.570  0.00  0.00     0.132 C 
HETATM   13  C   UNK     0     132.025 157.605 165.317  0.00  0.00     0.018 A 
HETATM   14  C   UNK     0     132.562 157.530 163.806  0.00  0.00     0.040 A 
ENDROOT
BRANCH   7  15
HETATM   15  C   UNK     0     130.849 154.104 167.653  0.00  0.00    -0.027 A 
HETATM   16  C   UNK     0     130.340 153.036 168.638  0.00  0.00     0.024 A 
HETATM   17  C   UNK     0     129.872 153.447 170.046  0.00  0.00     0.004 A 
HETATM   18  C   UNK     0     129.913 154.926 170.470  0.00  0.00     0.001 A 
HETATM   19  C   UNK     0     130.423 155.995 169.485  0.00  0.00     0.004 A 
HETATM   20  C   UNK     0     130.891 155.584 168.077  0.00  0.00     0.024 A 
ENDBRANCH   7  15
TORSDOF 1
ENDMDL
MODEL 4
REMARK VINA RESULT:      -7.1      3.442      6.053
REMARK  1 active torsions:
REMARK  status: ('A' for Active; 'I' for Inactive)
REMARK    1  A    between atoms: C_7  and  C_10 
ROOT
HETATM    1 Cl   UNK     0     131.058 158.195 168.502  0.00  0.00    -0.091 Cl
HETATM    2  O   UNK     0     135.374 155.351 161.359  0.00  0.00    -0.169 OA
HETATM    3  N   UNK     0     134.342 156.517 163.452  0.00  0.00    -0.307 N 
HETATM    4  N   UNK     0     132.312 153.714 163.529  0.00  0.00    -0.241 NA
HETATM    5  C   UNK     0     132.320 155.893 165.247  0.00  0.00     0.011 A 
HETATM    6  C   UNK     0     133.444 156.777 164.676  0.00  0.00     0.037 A 
HETATM    7  C   UNK     0     131.817 154.530 164.737  0.00  0.00     0.071 A 
HETATM    8  C   UNK     0     133.435 154.061 162.532  0.00  0.00     0.144 A 
HETATM    9  C   UNK     0     134.338 155.308 162.498  0.00  0.00     0.214 A 
HETATM   10  C   UNK     0     131.493 156.349 166.545  0.00  0.00     0.062 A 
HETATM   11  C   UNK     0     133.819 158.178 165.361  0.00  0.00     0.049 A 
HETATM   12  C   UNK     0     135.382 157.609 163.141  0.00  0.00     0.132 C 
HETATM   13  C   UNK     0     131.842 157.743 167.256  0.00  0.00     0.018 A 
HETATM   14  C   UNK     0     133.013 158.665 166.660  0.00  0.00     0.040 A 
ENDROOT
BRANCH   7  15
HETATM   15  C   UNK     0     130.665 153.899 165.541  0.00  0.00    -0.027 A 
HETATM   16  C   UNK     0     129.211 154.061 165.061  0.00  0.00     0.024 A 
HETATM   17  C   UNK     0     128.059 153.431 165.865  0.00  0.00     0.004 A 
HETATM   18  C   UNK     0     128.361 152.638 167.149  0.00  0.00     0.001 A 
HETATM   19  C   UNK     0     129.815 152.475 167.630  0.00  0.00     0.004 A 
HETATM   20  C   UNK     0     130.967 153.106 166.826  0.00  0.00     0.024 A 
ENDBRANCH   7  15
TORSDOF 1
ENDMDL
MODEL 5
REMARK VINA RESULT:      -6.7     27.739     29.903
REMARK  1 active torsions:
REMARK  status: ('A' for Active; 'I' for Inactive)
REMARK    1  A    between atoms: C_7  and  C_10 
ROOT
HETATM    1 Cl   UNK     0     151.218 138.878 159.794  0.00  0.00    -0.091 Cl
HETATM    2  O   UNK     0     158.081 133.752 161.883  0.00  0.00    -0.169 OA
HETATM    3  N   UNK     0     156.229 135.305 160.902  0.00  0.00    -0.307 N 
HETATM    4  N   UNK     0     154.799 134.926 164.030  0.00  0.00    -0.241 NA
HETATM    5  C   UNK     0     153.863 136.388 161.865  0.00  0.00     0.011 A 
HETATM    6  C   UNK     0     154.945 136.148 160.796  0.00  0.00     0.037 A 
HETATM    7  C   UNK     0     153.798 135.844 163.305  0.00  0.00     0.071 A 
HETATM    8  C   UNK     0     156.112 134.324 163.495  0.00  0.00     0.144 A 
HETATM    9  C   UNK     0     156.748 134.493 162.103  0.00  0.00     0.214 A 
HETATM   10  C   UNK     0     152.587 137.310 161.554  0.00  0.00     0.062 A 
HETATM   11  C   UNK     0     154.826 136.812 159.341  0.00  0.00     0.049 A 
HETATM   12  C   UNK     0     157.110 135.268 159.639  0.00  0.00     0.132 C 
HETATM   13  C   UNK     0     152.436 137.990 160.109  0.00  0.00     0.018 A 
HETATM   14  C   UNK     0     153.563 137.740 158.995  0.00  0.00     0.040 A 
ENDROOT
BRANCH   7  15
HETATM   15  C   UNK     0     152.570 136.276 164.128  0.00  0.00    -0.027 A 
HETATM   16  C   UNK     0     151.210 135.592 163.898  0.00  0.00     0.024 A 
HETATM   17  C   UNK     0     149.982 136.023 164.721  0.00  0.00     0.004 A 
HETATM   18  C   UNK     0     150.114 137.139 165.773  0.00  0.00     0.001 A 
HETATM   19  C   UNK     0     151.475 137.823 166.003  0.00  0.00     0.004 A 
HETATM   20  C   UNK     0     152.703 137.392 165.180  0.00  0.00     0.024 A 
ENDBRANCH   7  15
TORSDOF 1
ENDMDL
MODEL 6
REMARK VINA RESULT:      -6.6     63.470     66.986
REMARK  1 active torsions:
REMARK  status: ('A' for Active; 'I' for Inactive)
REMARK    1  A    between atoms: C_7  and  C_10 
ROOT
HETATM    1 Cl   UNK     0     134.933 129.414 103.269  0.00  0.00    -0.091 Cl
HETATM    2  O   UNK     0     128.034 134.323 105.725  0.00  0.00    -0.169 OA
HETATM    3  N   UNK     0     130.095 132.760 105.389  0.00  0.00    -0.307 N 
HETATM    4  N   UNK     0     129.836 133.775 102.090  0.00  0.00    -0.241 NA
HETATM    5  C   UNK     0     131.672 132.030 103.226  0.00  0.00     0.011 A 
HETATM    6  C   UNK     0     131.250 132.004 104.706  0.00  0.00     0.037 A 
HETATM    7  C   UNK     0     131.042 132.818 102.061  0.00  0.00     0.071 A 
HETATM    8  C   UNK     0     128.961 134.179 103.292  0.00  0.00     0.144 A 
HETATM    9  C   UNK     0     129.076 133.728 104.760  0.00  0.00     0.214 A 
HETATM   10  C   UNK     0     132.918 131.162 102.709  0.00  0.00     0.062 A 
HETATM   11  C   UNK     0     132.044 131.108 105.773  0.00  0.00     0.049 A 
HETATM   12  C   UNK     0     129.937 132.515 106.901  0.00  0.00     0.132 C 
HETATM   13  C   UNK     0     133.735 130.254 103.748  0.00  0.00     0.018 A 
HETATM   14  C   UNK     0     133.296 130.227 105.291  0.00  0.00     0.040 A 
ENDROOT
BRANCH   7  15
HETATM   15  C   UNK     0     131.707 132.624 100.686  0.00  0.00    -0.027 A 
HETATM   16  C   UNK     0     132.766 133.628 100.194  0.00  0.00     0.024 A 
HETATM   17  C   UNK     0     133.431 133.433  98.819  0.00  0.00     0.004 A 
HETATM   18  C   UNK     0     133.038 132.236  97.936  0.00  0.00     0.001 A 
HETATM   19  C   UNK     0     131.979 131.231  98.428  0.00  0.00     0.004 A 
HETATM   20  C   UNK     0     131.314 131.425  99.803  0.00  0.00     0.024 A 
ENDBRANCH   7  15
TORSDOF 1
ENDMDL
MODEL 7
REMARK VINA RESULT:      -6.3     39.837     42.606
REMARK  1 active torsions:
REMARK  status: ('A' for Active; 'I' for Inactive)
REMARK    1  A    between atoms: C_7  and  C_10 
ROOT
HETATM    1 Cl   UNK     0     141.345 127.703 128.991  0.00  0.00    -0.091 Cl
HETATM    2  O   UNK     0     138.197 131.916 136.068  0.00  0.00    -0.169 OA
HETATM    3  N   UNK     0     138.939 130.343 134.124  0.00  0.00    -0.307 N 
HETATM    4  N   UNK     0     140.512 133.189 132.940  0.00  0.00    -0.241 NA
HETATM    5  C   UNK     0     140.457 130.650 131.822  0.00  0.00     0.011 A 
HETATM    6  C   UNK     0     139.601 129.853 132.823  0.00  0.00     0.037 A 
HETATM    7  C   UNK     0     140.863 132.135 131.874  0.00  0.00     0.071 A 
HETATM    8  C   UNK     0     139.669 133.018 134.218  0.00  0.00     0.144 A 
HETATM    9  C   UNK     0     138.969 131.752 134.745  0.00  0.00     0.214 A 
HETATM   10  C   UNK     0     141.063 129.947 130.513  0.00  0.00     0.062 A 
HETATM   11  C   UNK     0     139.291 128.297 132.585  0.00  0.00     0.049 A 
HETATM   12  C   UNK     0     138.141 129.285 134.908  0.00  0.00     0.132 C 
HETATM   13  C   UNK     0     140.772 128.393 130.243  0.00  0.00     0.018 A 
HETATM   14  C   UNK     0     139.880 127.562 131.286  0.00  0.00     0.040 A 
ENDROOT
BRANCH   7  15
HETATM   15  C   UNK     0     141.734 132.632 130.706  0.00  0.00    -0.027 A 
HETATM   16  C   UNK     0     141.072 133.230 129.452  0.00  0.00     0.024 A 
HETATM   17  C   UNK     0     141.943 133.727 128.283  0.00  0.00     0.004 A 
HETATM   18  C   UNK     0     143.476 133.625 128.368  0.00  0.00     0.001 A 
HETATM   19  C   UNK     0     144.140 133.026 129.623  0.00  0.00     0.004 A 
HETATM   20  C   UNK     0     143.268 132.529 130.792  0.00  0.00     0.024 A 
ENDBRANCH   7  15
TORSDOF 1
ENDMDL
MODEL 8
REMARK VINA RESULT:      -6.3     41.441     43.926
REMARK  1 active torsions:
REMARK  status: ('A' for Active; 'I' for Inactive)
REMARK    1  A    between atoms: C_7  and  C_10 
ROOT
HETATM    1 Cl   UNK     0     112.706 114.354 169.622  0.00  0.00    -0.091 Cl
HETATM    2  O   UNK     0     116.022 113.367 161.513  0.00  0.00    -0.169 OA
HETATM    3  N   UNK     0     114.685 113.558 163.744  0.00  0.00    -0.307 N 
HETATM    4  N   UNK     0     117.768 114.409 165.066  0.00  0.00    -0.241 NA
HETATM    5  C   UNK     0     115.325 114.203 166.366  0.00  0.00     0.011 A 
HETATM    6  C   UNK     0     114.367 113.794 165.232  0.00  0.00     0.037 A 
HETATM    7  C   UNK     0     116.839 114.476 166.292  0.00  0.00     0.071 A 
HETATM    8  C   UNK     0     117.412 114.050 163.611  0.00  0.00     0.144 A 
HETATM    9  C   UNK     0     116.040 113.672 163.023  0.00  0.00     0.214 A 
HETATM   10  C   UNK     0     114.790 114.400 167.866  0.00  0.00     0.062 A 
HETATM   11  C   UNK     0     112.807 113.554 165.519  0.00  0.00     0.049 A 
HETATM   12  C   UNK     0     113.490 113.154 162.861  0.00  0.00     0.132 C 
HETATM   13  C   UNK     0     113.236 114.169 168.189  0.00  0.00     0.018 A 
HETATM   14  C   UNK     0     112.237 113.743 167.007  0.00  0.00     0.040 A 
ENDROOT
BRANCH   7  15
HETATM   15  C   UNK     0     117.513 114.870 167.619  0.00  0.00    -0.027 A 
HETATM   16  C   UNK     0     117.871 113.786 168.652  0.00  0.00     0.024 A 
HETATM   17  C   UNK     0     118.545 114.179 169.979  0.00  0.00     0.004 A 
HETATM   18  C   UNK     0     118.861 115.656 170.275  0.00  0.00     0.001 A 
HETATM   19  C   UNK     0     118.502 116.741 169.242  0.00  0.00     0.004 A 
HETATM   20  C   UNK     0     117.828 116.348 167.914  0.00  0.00     0.024 A 
ENDBRANCH   7  15
TORSDOF 1
ENDMDL
MODEL 9
REMARK VINA RESULT:      -6.3     35.525     37.523
REMARK  1 active torsions:
REMARK  status: ('A' for Active; 'I' for Inactive)
REMARK    1  A    between atoms: C_7  and  C_10 
ROOT
HETATM    1 Cl   UNK     0     132.710 139.993 128.392  0.00  0.00    -0.091 Cl
HETATM    2  O   UNK     0     128.641 138.344 136.037  0.00  0.00    -0.169 OA
HETATM    3  N   UNK     0     130.126 138.569 133.905  0.00  0.00    -0.307 N 
HETATM    4  N   UNK     0     127.668 140.788 132.900  0.00  0.00    -0.241 NA
HETATM    5  C   UNK     0     129.967 140.024 131.548  0.00  0.00     0.011 A 
HETATM    6  C   UNK     0     130.623 139.028 132.522  0.00  0.00     0.037 A 
HETATM    7  C   UNK     0     128.651 140.807 131.716  0.00  0.00     0.071 A 
HETATM    8  C   UNK     0     127.757 139.980 134.209  0.00  0.00     0.144 A 
HETATM    9  C   UNK     0     128.851 138.993 134.656  0.00  0.00     0.214 A 
HETATM   10  C   UNK     0     130.652 140.371 130.139  0.00  0.00     0.062 A 
HETATM   11  C   UNK     0     132.010 138.310 132.155  0.00  0.00     0.049 A 
HETATM   12  C   UNK     0     131.024 137.553 134.634  0.00  0.00     0.132 C 
HETATM   13  C   UNK     0     132.039 139.671 129.740  0.00  0.00     0.018 A 
HETATM   14  C   UNK     0     132.723 138.634 130.755  0.00  0.00     0.040 A 
ENDROOT
BRANCH   7  15
HETATM   15  C   UNK     0     128.269 141.732 130.545  0.00  0.00    -0.027 A 
HETATM   16  C   UNK     0     128.640 143.225 130.591  0.00  0.00     0.024 A 
HETATM   17  C   UNK     0     128.258 144.150 129.420  0.00  0.00     0.004 A 
HETATM   18  C   UNK     0     127.505 143.581 128.204  0.00  0.00     0.001 A 
HETATM   19  C   UNK     0     127.134 142.086 128.158  0.00  0.00     0.004 A 
HETATM   20  C   UNK     0     127.516 141.162 129.329  0.00  0.00     0.024 A 
ENDBRANCH   7  15
TORSDOF 1
ENDMDL
MODEL 10
REMARK VINA RESULT:      -6.2     39.510     42.300
REMARK  1 active torsions:
REMARK  status: ('A' for Active; 'I' for Inactive)
REMARK    1  A    between atoms: C_7  and  C_10 
ROOT
HETATM    1 Cl   UNK     0     120.081 129.470 133.520  0.00  0.00    -0.091 Cl
HETATM    2  O   UNK     0     113.466 134.599 130.752  0.00  0.00    -0.169 OA
HETATM    3  N   UNK     0     115.151 132.780 131.559  0.00  0.00    -0.307 N 
HETATM    4  N   UNK     0     117.380 135.427 131.621  0.00  0.00    -0.241 NA
HETATM    5  C   UNK     0     117.833 132.767 132.270  0.00  0.00     0.011 A 
HETATM    6  C   UNK     0     116.457 132.118 132.036  0.00  0.00     0.037 A 
HETATM    7  C   UNK     0     118.244 134.240 132.085  0.00  0.00     0.071 A 
HETATM    8  C   UNK     0     115.891 135.433 131.226  0.00  0.00     0.144 A 
HETATM    9  C   UNK     0     114.899 134.255 131.199  0.00  0.00     0.214 A 
HETATM   10  C   UNK     0     119.082 131.894 132.774  0.00  0.00     0.062 A 
HETATM   11  C   UNK     0     116.233 130.550 132.289  0.00  0.00     0.049 A 
HETATM   12  C   UNK     0     113.937 131.843 131.425  0.00  0.00     0.132 C 
HETATM   13  C   UNK     0     118.894 130.323 133.037  0.00  0.00     0.018 A 
HETATM   14  C   UNK     0     117.459 129.646 132.793  0.00  0.00     0.040 A 
ENDROOT
BRANCH   7  15
HETATM   15  C   UNK     0     119.713 134.570 132.407  0.00  0.00    -0.027 A 
HETATM   16  C   UNK     0     120.116 134.973 133.837  0.00  0.00     0.024 A 
HETATM   17  C   UNK     0     121.586 135.302 134.160  0.00  0.00     0.004 A 
HETATM   18  C   UNK     0     122.652 135.230 133.052  0.00  0.00     0.001 A 
HETATM   19  C   UNK     0     122.249 134.827 131.621  0.00  0.00     0.004 A 
HETATM   20  C   UNK     0     120.780 134.497 131.298  0.00  0.00     0.024 A 
ENDBRANCH   7  15
TORSDOF 1
ENDMDL
