MODEL 1
REMARK VINA RESULT:      -8.0      0.000      0.000
REMARK  1 active torsions:
REMARK  status: ('A' for Active; 'I' for Inactive)
REMARK    1  A    between atoms: C_10  and  C_12 
ROOT
HETATM    1  N   UNK     0     144.082 111.458 169.800  0.00  0.00    -0.105 NA
HETATM    2  C   UNK     0     143.224 113.981 169.673  0.00  0.00     0.056 A 
HETATM    3  C   UNK     0     142.662 112.927 168.701  0.00  0.00     0.009 A 
HETATM    4  C   UNK     0     142.728 115.437 169.600  0.00  0.00     0.009 A 
HETATM    5  C   UNK     0     141.605 113.330 167.655  0.00  0.00     0.001 A 
HETATM    6  C   UNK     0     141.671 115.840 168.555  0.00  0.00     0.001 A 
HETATM    7  C   UNK     0     141.110 114.785 167.582  0.00  0.00     0.000 A 
HETATM    8  C   UNK     0     144.158 114.357 170.838  0.00  0.00     0.056 A 
HETATM    9  C   UNK     0     144.120 112.908 170.319  0.00  0.00     0.053 A 
ENDROOT
BRANCH   8  10
HETATM   10  C   UNK     0     144.196 115.806 171.357  0.00  0.00     0.208 C 
HETATM   11  O   UNK     0     143.525 116.163 172.698  0.00  0.00    -0.644 OA
HETATM   12  O   UNK     0     144.905 116.901 170.537  0.00  0.00    -0.644 OA
ENDBRANCH   8  10
TORSDOF 1
ENDMDL
MODEL 2
REMARK VINA RESULT:      -7.5      2.458      3.889
REMARK  1 active torsions:
REMARK  status: ('A' for Active; 'I' for Inactive)
REMARK    1  A    between atoms: C_10  and  C_12 
ROOT
HETATM    1  N   UNK     0     145.255 111.211 171.638  0.00  0.00    -0.105 NA
HETATM    2  C   UNK     0     144.171 113.501 170.804  0.00  0.00     0.056 A 
HETATM    3  C   UNK     0     144.783 113.408 172.213  0.00  0.00     0.009 A 
HETATM    4  C   UNK     0     143.545 114.823 170.321  0.00  0.00     0.009 A 
HETATM    5  C   UNK     0     144.769 114.637 173.141  0.00  0.00     0.001 A 
HETATM    6  C   UNK     0     143.532 116.052 171.249  0.00  0.00     0.001 A 
HETATM    7  C   UNK     0     144.144 115.959 172.659  0.00  0.00     0.000 A 
HETATM    8  C   UNK     0     143.825 112.845 169.454  0.00  0.00     0.056 A 
HETATM    9  C   UNK     0     144.540 112.028 170.546  0.00  0.00     0.053 A 
ENDROOT
BRANCH   8  10
HETATM   10  C   UNK     0     143.111 113.662 168.361  0.00  0.00     0.208 C 
HETATM   11  O   UNK     0     141.573 113.648 168.270  0.00  0.00    -0.644 OA
HETATM   12  O   UNK     0     143.933 114.494 167.359  0.00  0.00    -0.644 OA
ENDBRANCH   8  10
TORSDOF 1
ENDMDL
MODEL 3
REMARK VINA RESULT:      -7.2     23.929     24.996
REMARK  1 active torsions:
REMARK  status: ('A' for Active; 'I' for Inactive)
REMARK    1  A    between atoms: C_10  and  C_12 
ROOT
HETATM    1  N   UNK     0     154.610 137.764 166.048  0.00  0.00    -0.105 NA
HETATM    2  C   UNK     0     151.967 137.480 165.821  0.00  0.00     0.056 A 
HETATM    3  C   UNK     0     152.560 138.231 167.027  0.00  0.00     0.009 A 
HETATM    4  C   UNK     0     150.441 137.317 165.690  0.00  0.00     0.009 A 
HETATM    5  C   UNK     0     151.627 138.818 168.103  0.00  0.00     0.001 A 
HETATM    6  C   UNK     0     149.509 137.904 166.766  0.00  0.00     0.001 A 
HETATM    7  C   UNK     0     150.102 138.655 167.972  0.00  0.00     0.000 A 
HETATM    8  C   UNK     0     152.163 136.708 164.503  0.00  0.00     0.056 A 
HETATM    9  C   UNK     0     153.387 137.236 165.275  0.00  0.00     0.053 A 
ENDROOT
BRANCH   8  10
HETATM   10  C   UNK     0     150.940 136.180 163.731  0.00  0.00     0.208 C 
HETATM   11  O   UNK     0     150.196 134.926 164.229  0.00  0.00    -0.644 OA
HETATM   12  O   UNK     0     150.459 136.905 162.459  0.00  0.00    -0.644 OA
ENDBRANCH   8  10
TORSDOF 1
ENDMDL
MODEL 4
REMARK VINA RESULT:      -7.0     25.567     26.679
REMARK  1 active torsions:
REMARK  status: ('A' for Active; 'I' for Inactive)
REMARK    1  A    between atoms: C_10  and  C_12 
ROOT
HETATM    1  N   UNK     0     153.491 137.788 165.795  0.00  0.00    -0.105 NA
HETATM    2  C   UNK     0     152.945 138.931 168.142  0.00  0.00     0.056 A 
HETATM    3  C   UNK     0     151.807 138.338 167.293  0.00  0.00     0.009 A 
HETATM    4  C   UNK     0     152.630 139.592 169.498  0.00  0.00     0.009 A 
HETATM    5  C   UNK     0     150.354 138.404 167.797  0.00  0.00     0.001 A 
HETATM    6  C   UNK     0     151.177 139.658 170.002  0.00  0.00     0.001 A 
HETATM    7  C   UNK     0     150.038 139.064 169.152  0.00  0.00     0.000 A 
HETATM    8  C   UNK     0     154.442 139.236 168.342  0.00  0.00     0.056 A 
HETATM    9  C   UNK     0     153.967 138.512 167.068  0.00  0.00     0.053 A 
ENDROOT
BRANCH   8  10
HETATM   10  C   UNK     0     154.917 139.960 169.615  0.00  0.00     0.208 C 
HETATM   11  O   UNK     0     155.476 139.150 170.800  0.00  0.00    -0.644 OA
HETATM   12  O   UNK     0     154.834 141.496 169.705  0.00  0.00    -0.644 OA
ENDBRANCH   8  10
TORSDOF 1
ENDMDL
MODEL 5
REMARK VINA RESULT:      -6.5      1.744      2.436
REMARK  1 active torsions:
REMARK  status: ('A' for Active; 'I' for Inactive)
REMARK    1  A    between atoms: C_10  and  C_12 
ROOT
HETATM    1  N   UNK     0     146.116 111.464 172.588  0.00  0.00    -0.105 NA
HETATM    2  C   UNK     0     144.606 113.178 171.209  0.00  0.00     0.056 A 
HETATM    3  C   UNK     0     144.685 111.702 170.777  0.00  0.00     0.009 A 
HETATM    4  C   UNK     0     143.734 114.167 170.413  0.00  0.00     0.009 A 
HETATM    5  C   UNK     0     143.892 111.215 169.550  0.00  0.00     0.001 A 
HETATM    6  C   UNK     0     142.942 113.681 169.186  0.00  0.00     0.001 A 
HETATM    7  C   UNK     0     143.021 112.204 168.754  0.00  0.00     0.000 A 
HETATM    8  C   UNK     0     145.018 114.311 172.167  0.00  0.00     0.056 A 
HETATM    9  C   UNK     0     145.567 112.888 172.377  0.00  0.00     0.053 A 
ENDROOT
BRANCH   8  10
HETATM   10  C   UNK     0     144.469 115.735 171.957  0.00  0.00     0.208 C 
HETATM   11  O   UNK     0     143.413 116.304 172.923  0.00  0.00    -0.644 OA
HETATM   12  O   UNK     0     144.976 116.590 170.780  0.00  0.00    -0.644 OA
ENDBRANCH   8  10
TORSDOF 1
ENDMDL
MODEL 6
REMARK VINA RESULT:      -6.1     40.009     41.475
REMARK  1 active torsions:
REMARK  status: ('A' for Active; 'I' for Inactive)
REMARK    1  A    between atoms: C_10  and  C_12 
ROOT
HETATM    1  N   UNK     0     108.169 141.419 166.762  0.00  0.00    -0.105 NA
HETATM    2  C   UNK     0     110.069 139.823 167.739  0.00  0.00     0.056 A 
HETATM    3  C   UNK     0     110.344 140.665 166.481  0.00  0.00     0.009 A 
HETATM    4  C   UNK     0     111.166 138.901 168.304  0.00  0.00     0.009 A 
HETATM    5  C   UNK     0     111.717 140.587 165.787  0.00  0.00     0.001 A 
HETATM    6  C   UNK     0     112.538 138.822 167.610  0.00  0.00     0.001 A 
HETATM    7  C   UNK     0     112.813 139.666 166.351  0.00  0.00     0.000 A 
HETATM    8  C   UNK     0     109.117 139.381 168.867  0.00  0.00     0.056 A 
HETATM    9  C   UNK     0     108.643 140.400 167.815  0.00  0.00     0.053 A 
ENDROOT
BRANCH   8  10
HETATM   10  C   UNK     0     109.592 138.362 169.920  0.00  0.00     0.208 C 
HETATM   11  O   UNK     0     110.056 138.846 171.307  0.00  0.00    -0.644 OA
HETATM   12  O   UNK     0     109.602 136.858 169.587  0.00  0.00    -0.644 OA
ENDBRANCH   8  10
TORSDOF 1
ENDMDL
MODEL 7
REMARK VINA RESULT:      -5.9     74.989     76.593
REMARK  1 active torsions:
REMARK  status: ('A' for Active; 'I' for Inactive)
REMARK    1  A    between atoms: C_10  and  C_12 
ROOT
HETATM    1  N   UNK     0     135.458 135.589  95.302  0.00  0.00    -0.105 NA
HETATM    2  C   UNK     0     133.213 135.195  96.688  0.00  0.00     0.056 A 
HETATM    3  C   UNK     0     134.367 134.180  96.788  0.00  0.00     0.009 A 
HETATM    4  C   UNK     0     131.917 134.967  97.489  0.00  0.00     0.009 A 
HETATM    5  C   UNK     0     134.225 132.938  97.687  0.00  0.00     0.001 A 
HETATM    6  C   UNK     0     131.775 133.725  98.388  0.00  0.00     0.001 A 
HETATM    7  C   UNK     0     132.929 132.711  98.487  0.00  0.00     0.000 A 
HETATM    8  C   UNK     0     132.628 136.498  96.111  0.00  0.00     0.056 A 
HETATM    9  C   UNK     0     134.043 136.043  95.707  0.00  0.00     0.053 A 
ENDROOT
BRANCH   8  10
HETATM   10  C   UNK     0     131.214 136.952  96.516  0.00  0.00     0.208 C 
HETATM   11  O   UNK     0     130.031 136.740  95.552  0.00  0.00    -0.644 OA
HETATM   12  O   UNK     0     130.980 137.619  97.885  0.00  0.00    -0.644 OA
ENDBRANCH   8  10
TORSDOF 1
ENDMDL
MODEL 8
REMARK VINA RESULT:      -5.8      2.796      3.805
REMARK  1 active torsions:
REMARK  status: ('A' for Active; 'I' for Inactive)
REMARK    1  A    between atoms: C_10  and  C_12 
ROOT
HETATM    1  N   UNK     0     146.178 112.351 174.614  0.00  0.00    -0.105 NA
HETATM    2  C   UNK     0     145.067 113.162 172.328  0.00  0.00     0.056 A 
HETATM    3  C   UNK     0     145.331 111.664 172.567  0.00  0.00     0.009 A 
HETATM    4  C   UNK     0     144.425 113.630 171.009  0.00  0.00     0.009 A 
HETATM    5  C   UNK     0     144.953 110.634 171.486  0.00  0.00     0.001 A 
HETATM    6  C   UNK     0     144.048 112.600 169.928  0.00  0.00     0.001 A 
HETATM    7  C   UNK     0     144.312 111.101 170.167  0.00  0.00     0.000 A 
HETATM    8  C   UNK     0     145.132 114.622 172.815  0.00  0.00     0.056 A 
HETATM    9  C   UNK     0     145.655 113.486 173.714  0.00  0.00     0.053 A 
ENDROOT
BRANCH   8  10
HETATM   10  C   UNK     0     144.609 115.757 171.915  0.00  0.00     0.208 C 
HETATM   11  O   UNK     0     143.255 116.424 172.223  0.00  0.00    -0.644 OA
HETATM   12  O   UNK     0     145.440 116.227 170.705  0.00  0.00    -0.644 OA
ENDBRANCH   8  10
TORSDOF 1
ENDMDL
MODEL 9
REMARK VINA RESULT:      -5.6     45.200     46.501
REMARK  1 active torsions:
REMARK  status: ('A' for Active; 'I' for Inactive)
REMARK    1  A    between atoms: C_10  and  C_12 
ROOT
HETATM    1  N   UNK     0     117.851 116.390 132.347  0.00  0.00    -0.105 NA
HETATM    2  C   UNK     0     118.270 114.080 131.082  0.00  0.00     0.056 A 
HETATM    3  C   UNK     0     119.466 114.930 131.546  0.00  0.00     0.009 A 
HETATM    4  C   UNK     0     118.511 112.745 130.351  0.00  0.00     0.009 A 
HETATM    5  C   UNK     0     120.904 114.447 131.281  0.00  0.00     0.001 A 
HETATM    6  C   UNK     0     119.949 112.262 130.086  0.00  0.00     0.001 A 
HETATM    7  C   UNK     0     121.146 113.114 130.551  0.00  0.00     0.000 A 
HETATM    8  C   UNK     0     116.749 113.867 130.966  0.00  0.00     0.056 A 
HETATM    9  C   UNK     0     117.300 115.129 131.656  0.00  0.00     0.053 A 
ENDROOT
BRANCH   8  10
HETATM   10  C   UNK     0     116.197 112.606 130.276  0.00  0.00     0.208 C 
HETATM   11  O   UNK     0     116.341 112.436 128.751  0.00  0.00    -0.644 OA
HETATM   12  O   UNK     0     115.502 111.512 131.109  0.00  0.00    -0.644 OA
ENDBRANCH   8  10
TORSDOF 1
ENDMDL
MODEL 10
REMARK VINA RESULT:      -5.5     25.097     26.485
REMARK  1 active torsions:
REMARK  status: ('A' for Active; 'I' for Inactive)
REMARK    1  A    between atoms: C_10  and  C_12 
ROOT
HETATM    1  N   UNK     0     116.550 112.833 171.756  0.00  0.00    -0.105 NA
HETATM    2  C   UNK     0     117.031 114.631 169.846  0.00  0.00     0.056 A 
HETATM    3  C   UNK     0     117.932 114.574 171.093  0.00  0.00     0.009 A 
HETATM    4  C   UNK     0     117.309 115.670 168.743  0.00  0.00     0.009 A 
HETATM    5  C   UNK     0     119.110 115.555 171.238  0.00  0.00     0.001 A 
HETATM    6  C   UNK     0     118.488 116.651 168.888  0.00  0.00     0.001 A 
HETATM    7  C   UNK     0     119.388 116.593 170.136  0.00  0.00     0.000 A 
HETATM    8  C   UNK     0     115.831 114.098 169.042  0.00  0.00     0.056 A 
HETATM    9  C   UNK     0     116.190 113.466 170.399  0.00  0.00     0.053 A 
ENDROOT
BRANCH   8  10
HETATM   10  C   UNK     0     115.471 114.731 167.684  0.00  0.00     0.208 C 
HETATM   11  O   UNK     0     116.076 114.165 166.385  0.00  0.00    -0.644 OA
HETATM   12  O   UNK     0     114.507 115.932 167.625  0.00  0.00    -0.644 OA
ENDBRANCH   8  10
TORSDOF 1
ENDMDL
