REMARK  3 active torsions:
REMARK  status: ('A' for Active; 'I' for Inactive)
REMARK    1  A    between atoms: N_1  and  C_2 
REMARK    2  A    between atoms: C_2  and  C_5 
REMARK    3  A    between atoms: C_2  and  C_6 
ROOT
HETATM    1  N   UNK     0      -0.021   0.740   0.000  0.00  0.00    -0.311 N 
HETATM    2  C   UNK     0       1.224   1.645   0.000  0.00  0.00     0.171 A 
HETATM    3  C   UNK     0      -1.267   1.645   0.000  0.00  0.00     0.108 A 
HETATM    4  C   UNK     0       0.748   3.110   0.000  0.00  0.00     0.075 A 
HETATM    5  O   UNK     0       2.689   1.169   0.000  0.00  0.00    -0.176 OA
HETATM    6  C   UNK     0      -0.791   3.110   0.000  0.00  0.00     0.033 A 
ENDROOT
BRANCH   1   7
HETATM    7  C   UNK     0      -0.021  -0.800   0.000  0.00  0.00     0.077 C 
BRANCH   7   8
HETATM    8  C   UNK     0       1.312  -1.570   0.000  0.00  0.00     0.212 C 
HETATM    9  N   UNK     0       2.646  -0.800   0.000  0.00  0.00    -0.070 NA
HETATM   10  O   UNK     0       1.312  -3.110   0.000  0.00  0.00    -0.174 OA
ENDBRANCH   7   8
BRANCH   7  11
HETATM   11  C   UNK     0      -1.355  -1.570   0.000  0.00  0.00     0.047 C 
HETATM   12  C   UNK     0      -2.689  -0.800   0.000  0.00  0.00     0.007 C 
ENDBRANCH   7  11
ENDBRANCH   1   7
TORSDOF 3
