MODEL 1
REMARK VINA RESULT:     -10.0      0.000      0.000
REMARK  0 active torsions:
REMARK  status: ('A' for Active; 'I' for Inactive)
ROOT
HETATM    1 Cl   UNK     0     143.566 116.390 171.519  0.00  0.00    -0.100 Cl
HETATM    2 Cl   UNK     0     142.885 114.651 169.724  0.00  0.00    -0.158 Cl
HETATM    3  O   UNK     0     144.479 107.768 168.589  0.00  0.00    -0.165 OA
HETATM    4  O   UNK     0     146.107 107.968 170.951  0.00  0.00    -0.165 OA
HETATM    5  N   UNK     0     145.590 110.475 171.452  0.00  0.00    -0.222 NA
HETATM    6  N   UNK     0     143.630 110.233 168.609  0.00  0.00    -0.217 NA
HETATM    7  C   UNK     0     144.038 112.435 170.249  0.00  0.00     0.011 A 
HETATM    8  C   UNK     0     143.428 111.698 169.042  0.00  0.00     0.077 A 
HETATM    9  C   UNK     0     144.999 111.892 171.321  0.00  0.00     0.059 A 
HETATM   10  C   UNK     0     142.493 112.535 168.149  0.00  0.00     0.001 A 
HETATM   11  C   UNK     0     144.492 109.145 169.278  0.00  0.00     0.257 A 
HETATM   12  C   UNK     0     143.534 113.957 170.290  0.00  0.00     0.059 A 
HETATM   13  C   UNK     0     145.364 109.252 170.543  0.00  0.00     0.257 A 
HETATM   14  C   UNK     0     145.524 112.832 172.509  0.00  0.00     0.048 A 
HETATM   15  C   UNK     0     144.039 114.926 171.464  0.00  0.00     0.128 A 
HETATM   16  C   UNK     0     145.041 114.360 172.581  0.00  0.00     0.036 A 
HETATM   17  C   UNK     0     142.221 114.012 168.490  0.00  0.00     0.019 A 
HETATM   18  C   UNK     0     141.830 111.894 166.915  0.00  0.00     0.028 A 
HETATM   19  C   UNK     0     141.286 114.849 167.597  0.00  0.00     0.036 A 
HETATM   20  C   UNK     0     140.895 112.731 166.022  0.00  0.00     0.005 A 
HETATM   21  C   UNK     0     140.623 114.208 166.364  0.00  0.00     0.006 A 
ENDROOT
TORSDOF 0
ENDMDL
MODEL 2
REMARK VINA RESULT:      -9.7      3.224      5.838
REMARK  0 active torsions:
REMARK  status: ('A' for Active; 'I' for Inactive)
ROOT
HETATM    1 Cl   UNK     0     146.067 109.167 171.654  0.00  0.00    -0.100 Cl
HETATM    2 Cl   UNK     0     145.111 111.566 171.460  0.00  0.00    -0.158 Cl
HETATM    3  O   UNK     0     140.788 114.853 166.799  0.00  0.00    -0.165 OA
HETATM    4  O   UNK     0     140.703 112.334 165.415  0.00  0.00    -0.165 OA
HETATM    5  N   UNK     0     142.269 111.046 167.055  0.00  0.00    -0.222 NA
HETATM    6  N   UNK     0     142.371 114.078 168.721  0.00  0.00    -0.217 NA
HETATM    7  C   UNK     0     143.639 111.698 169.379  0.00  0.00     0.011 A 
HETATM    8  C   UNK     0     143.274 113.180 169.588  0.00  0.00     0.077 A 
HETATM    9  C   UNK     0     143.192 110.749 168.253  0.00  0.00     0.059 A 
HETATM   10  C   UNK     0     143.893 113.853 170.827  0.00  0.00     0.001 A 
HETATM   11  C   UNK     0     141.611 113.715 167.431  0.00  0.00     0.257 A 
HETATM   12  C   UNK     0     144.614 111.190 170.546  0.00  0.00     0.059 A 
HETATM   13  C   UNK     0     141.566 112.366 166.690  0.00  0.00     0.257 A 
HETATM   14  C   UNK     0     143.689 109.224 168.215  0.00  0.00     0.048 A 
HETATM   15  C   UNK     0     145.130 109.672 170.540  0.00  0.00     0.128 A 
HETATM   16  C   UNK     0     144.665 108.682 169.367  0.00  0.00     0.036 A 
HETATM   17  C   UNK     0     144.812 113.046 171.763  0.00  0.00     0.019 A 
HETATM   18  C   UNK     0     143.593 115.333 171.130  0.00  0.00     0.028 A 
HETATM   19  C   UNK     0     145.430 113.719 173.003  0.00  0.00     0.036 A 
HETATM   20  C   UNK     0     144.212 116.006 172.369  0.00  0.00     0.005 A 
HETATM   21  C   UNK     0     145.131 115.199 173.305  0.00  0.00     0.006 A 
ENDROOT
TORSDOF 0
ENDMDL
MODEL 3
REMARK VINA RESULT:      -9.6     26.354     27.889
REMARK  0 active torsions:
REMARK  status: ('A' for Active; 'I' for Inactive)
ROOT
HETATM    1 Cl   UNK     0     157.091 139.448 168.146  0.00  0.00    -0.100 Cl
HETATM    2 Cl   UNK     0     154.532 139.054 168.050  0.00  0.00    -0.158 Cl
HETATM    3  O   UNK     0     150.154 135.810 163.412  0.00  0.00    -0.165 OA
HETATM    4  O   UNK     0     152.524 135.246 161.884  0.00  0.00    -0.165 OA
HETATM    5  N   UNK     0     154.203 136.403 163.511  0.00  0.00    -0.222 NA
HETATM    6  N   UNK     0     151.350 137.081 165.349  0.00  0.00    -0.217 NA
HETATM    7  C   UNK     0     153.980 137.759 165.922  0.00  0.00     0.011 A 
HETATM    8  C   UNK     0     152.465 137.718 166.200  0.00  0.00     0.077 A 
HETATM    9  C   UNK     0     154.753 137.174 164.726  0.00  0.00     0.059 A 
HETATM   10  C   UNK     0     152.005 138.403 167.500  0.00  0.00     0.001 A 
HETATM   11  C   UNK     0     151.474 136.329 164.010  0.00  0.00     0.257 A 
HETATM   12  C   UNK     0     154.746 138.535 167.097  0.00  0.00     0.059 A 
HETATM   13  C   UNK     0     152.744 136.027 163.192  0.00  0.00     0.257 A 
HETATM   14  C   UNK     0     156.346 137.325 164.622  0.00  0.00     0.048 A 
HETATM   15  C   UNK     0     156.339 138.705 167.026  0.00  0.00     0.128 A 
HETATM   16  C   UNK     0     157.144 138.096 165.780  0.00  0.00     0.036 A 
HETATM   17  C   UNK     0     153.038 139.072 168.425  0.00  0.00     0.019 A 
HETATM   18  C   UNK     0     150.511 138.420 167.874  0.00  0.00     0.028 A 
HETATM   19  C   UNK     0     152.578 139.758 169.725  0.00  0.00     0.036 A 
HETATM   20  C   UNK     0     150.051 139.106 169.174  0.00  0.00     0.005 A 
HETATM   21  C   UNK     0     151.085 139.775 170.099  0.00  0.00     0.006 A 
ENDROOT
TORSDOF 0
ENDMDL
MODEL 4
REMARK VINA RESULT:      -9.3     42.800     44.880
REMARK  0 active torsions:
REMARK  status: ('A' for Active; 'I' for Inactive)
ROOT
HETATM    1 Cl   UNK     0     131.624 159.268 167.529  0.00  0.00    -0.100 Cl
HETATM    2 Cl   UNK     0     131.263 156.703 167.487  0.00  0.00    -0.158 Cl
HETATM    3  O   UNK     0     132.372 151.588 162.607  0.00  0.00    -0.165 OA
HETATM    4  O   UNK     0     133.330 153.702 160.909  0.00  0.00    -0.165 OA
HETATM    5  N   UNK     0     132.964 155.638 162.617  0.00  0.00    -0.222 NA
HETATM    6  N   UNK     0     131.811 153.094 164.660  0.00  0.00    -0.217 NA
HETATM    7  C   UNK     0     131.999 155.808 165.213  0.00  0.00     0.011 A 
HETATM    8  C   UNK     0     131.656 154.344 165.548  0.00  0.00     0.077 A 
HETATM    9  C   UNK     0     132.580 156.384 163.909  0.00  0.00     0.059 A 
HETATM   10  C   UNK     0     131.083 154.096 166.955  0.00  0.00     0.001 A 
HETATM   11  C   UNK     0     132.347 153.001 163.219  0.00  0.00     0.257 A 
HETATM   12  C   UNK     0     131.664 156.762 166.458  0.00  0.00     0.059 A 
HETATM   13  C   UNK     0     132.860 154.133 162.310  0.00  0.00     0.257 A 
HETATM   14  C   UNK     0     132.868 157.954 163.760  0.00  0.00     0.048 A 
HETATM   15  C   UNK     0     131.939 158.338 166.343  0.00  0.00     0.128 A 
HETATM   16  C   UNK     0     132.545 158.938 164.985  0.00  0.00     0.036 A 
HETATM   17  C   UNK     0     130.886 155.276 167.926  0.00  0.00     0.019 A 
HETATM   18  C   UNK     0     130.706 152.668 167.393  0.00  0.00     0.028 A 
HETATM   19  C   UNK     0     130.313 155.028 169.333  0.00  0.00     0.036 A 
HETATM   20  C   UNK     0     130.133 152.420 168.801  0.00  0.00     0.005 A 
HETATM   21  C   UNK     0     129.937 153.601 169.771  0.00  0.00     0.006 A 
ENDROOT
TORSDOF 0
ENDMDL
MODEL 5
REMARK VINA RESULT:      -9.2     42.028     44.403
REMARK  0 active torsions:
REMARK  status: ('A' for Active; 'I' for Inactive)
ROOT
HETATM    1 Cl   UNK     0     105.623 140.624 171.467  0.00  0.00    -0.100 Cl
HETATM    2 Cl   UNK     0     107.971 139.644 170.980  0.00  0.00    -0.158 Cl
HETATM    3  O   UNK     0     112.284 139.630 165.269  0.00  0.00    -0.165 OA
HETATM    4  O   UNK     0     110.216 141.139 163.960  0.00  0.00    -0.165 OA
HETATM    5  N   UNK     0     108.572 141.201 165.984  0.00  0.00    -0.222 NA
HETATM    6  N   UNK     0     111.062 139.384 167.559  0.00  0.00    -0.217 NA
HETATM    7  C   UNK     0     108.617 140.216 168.578  0.00  0.00     0.011 A 
HETATM    8  C   UNK     0     109.985 139.511 168.654  0.00  0.00     0.077 A 
HETATM    9  C   UNK     0     107.989 140.967 167.390  0.00  0.00     0.059 A 
HETATM   10  C   UNK     0     110.320 138.845 170.001  0.00  0.00     0.001 A 
HETATM   11  C   UNK     0     111.036 139.931 166.120  0.00  0.00     0.257 A 
HETATM   12  C   UNK     0     107.838 140.083 169.973  0.00  0.00     0.059 A 
HETATM   13  C   UNK     0     109.928 140.740 165.418  0.00  0.00     0.257 A 
HETATM   14  C   UNK     0     106.537 141.639 167.516  0.00  0.00     0.048 A 
HETATM   15  C   UNK     0     106.385 140.742 170.134  0.00  0.00     0.128 A 
HETATM   16  C   UNK     0     105.730 141.525 168.897  0.00  0.00     0.036 A 
HETATM   17  C   UNK     0     109.313 138.911 171.165  0.00  0.00     0.019 A 
HETATM   18  C   UNK     0     111.662 138.113 170.185  0.00  0.00     0.028 A 
HETATM   19  C   UNK     0     109.648 138.245 172.512  0.00  0.00     0.036 A 
HETATM   20  C   UNK     0     111.998 137.447 171.533  0.00  0.00     0.005 A 
HETATM   21  C   UNK     0     110.990 137.513 172.696  0.00  0.00     0.006 A 
ENDROOT
TORSDOF 0
ENDMDL
MODEL 6
REMARK VINA RESULT:      -9.2     42.427     44.337
REMARK  0 active torsions:
REMARK  status: ('A' for Active; 'I' for Inactive)
ROOT
HETATM    1 Cl   UNK     0     112.135 137.403 171.622  0.00  0.00    -0.100 Cl
HETATM    2 Cl   UNK     0     111.339 138.591 169.462  0.00  0.00    -0.158 Cl
HETATM    3  O   UNK     0     105.371 142.068 167.591  0.00  0.00    -0.165 OA
HETATM    4  O   UNK     0     104.446 141.490 170.252  0.00  0.00    -0.165 OA
HETATM    5  N   UNK     0     106.577 140.206 171.031  0.00  0.00    -0.222 NA
HETATM    6  N   UNK     0     107.691 140.902 167.829  0.00  0.00    -0.217 NA
HETATM    7  C   UNK     0     108.998 139.528 169.856  0.00  0.00     0.011 A 
HETATM    8  C   UNK     0     108.871 140.123 168.441  0.00  0.00     0.077 A 
HETATM    9  C   UNK     0     107.978 139.565 171.008  0.00  0.00     0.059 A 
HETATM   10  C   UNK     0     110.083 139.911 167.515  0.00  0.00     0.001 A 
HETATM   11  C   UNK     0     106.347 141.278 168.482  0.00  0.00     0.257 A 
HETATM   12  C   UNK     0     110.417 138.802 170.035  0.00  0.00     0.059 A 
HETATM   13  C   UNK     0     105.852 140.968 169.907  0.00  0.00     0.257 A 
HETATM   14  C   UNK     0     108.306 138.878 172.420  0.00  0.00     0.048 A 
HETATM   15  C   UNK     0     110.778 138.105 171.433  0.00  0.00     0.128 A 
HETATM   16  C   UNK     0     109.715 138.143 172.634  0.00  0.00     0.036 A 
HETATM   17  C   UNK     0     111.318 139.145 168.025  0.00  0.00     0.019 A 
HETATM   18  C   UNK     0     110.061 140.465 166.078  0.00  0.00     0.028 A 
HETATM   19  C   UNK     0     112.530 138.933 167.100  0.00  0.00     0.036 A 
HETATM   20  C   UNK     0     111.273 140.253 165.152  0.00  0.00     0.005 A 
HETATM   21  C   UNK     0     112.507 139.487 165.663  0.00  0.00     0.006 A 
ENDROOT
TORSDOF 0
ENDMDL
MODEL 7
REMARK VINA RESULT:      -9.1     43.012     45.036
REMARK  0 active torsions:
REMARK  status: ('A' for Active; 'I' for Inactive)
ROOT
HETATM    1 Cl   UNK     0     130.152 152.106 168.827  0.00  0.00    -0.100 Cl
HETATM    2 Cl   UNK     0     131.119 152.868 166.548  0.00  0.00    -0.158 Cl
HETATM    3  O   UNK     0     132.686 159.229 163.668  0.00  0.00    -0.165 OA
HETATM    4  O   UNK     0     131.758 160.350 166.149  0.00  0.00    -0.165 OA
HETATM    5  N   UNK     0     131.155 158.083 167.287  0.00  0.00    -0.222 NA
HETATM    6  N   UNK     0     132.271 156.734 164.302  0.00  0.00    -0.217 NA
HETATM    7  C   UNK     0     131.286 155.415 166.537  0.00  0.00     0.011 A 
HETATM    8  C   UNK     0     131.865 155.487 165.111  0.00  0.00     0.077 A 
HETATM    9  C   UNK     0     130.970 156.569 167.505  0.00  0.00     0.059 A 
HETATM   10  C   UNK     0     132.065 154.136 164.401  0.00  0.00     0.001 A 
HETATM   11  C   UNK     0     132.197 158.215 164.719  0.00  0.00     0.257 A 
HETATM   12  C   UNK     0     131.019 153.890 166.957  0.00  0.00     0.059 A 
HETATM   13  C   UNK     0     131.701 158.815 166.047  0.00  0.00     0.257 A 
HETATM   14  C   UNK     0     130.365 156.280 168.961  0.00  0.00     0.048 A 
HETATM   15  C   UNK     0     130.415 153.564 168.407  0.00  0.00     0.128 A 
HETATM   16  C   UNK     0     130.085 154.767 169.415  0.00  0.00     0.036 A 
HETATM   17  C   UNK     0     131.692 152.826 165.119  0.00  0.00     0.019 A 
HETATM   18  C   UNK     0     132.638 154.094 162.971  0.00  0.00     0.028 A 
HETATM   19  C   UNK     0     131.892 151.474 164.408  0.00  0.00     0.036 A 
HETATM   20  C   UNK     0     132.838 152.743 162.261  0.00  0.00     0.005 A 
HETATM   21  C   UNK     0     132.464 151.433 162.980  0.00  0.00     0.006 A 
ENDROOT
TORSDOF 0
ENDMDL
MODEL 8
REMARK VINA RESULT:      -9.1     26.313     28.012
REMARK  0 active torsions:
REMARK  status: ('A' for Active; 'I' for Inactive)
ROOT
HETATM    1 Cl   UNK     0     151.946 140.128 170.482  0.00  0.00    -0.100 Cl
HETATM    2 Cl   UNK     0     153.621 139.259 168.708  0.00  0.00    -0.158 Cl
HETATM    3  O   UNK     0     152.950 135.735 162.516  0.00  0.00    -0.165 OA
HETATM    4  O   UNK     0     150.120 135.803 163.021  0.00  0.00    -0.165 OA
HETATM    5  N   UNK     0     150.257 137.085 165.287  0.00  0.00    -0.222 NA
HETATM    6  N   UNK     0     153.663 137.003 164.680  0.00  0.00    -0.217 NA
HETATM    7  C   UNK     0     152.316 138.112 166.839  0.00  0.00     0.011 A 
HETATM    8  C   UNK     0     153.573 137.750 166.024  0.00  0.00     0.077 A 
HETATM    9  C   UNK     0     150.841 137.816 166.511  0.00  0.00     0.059 A 
HETATM   10  C   UNK     0     154.915 138.194 166.634  0.00  0.00     0.001 A 
HETATM   11  C   UNK     0     152.520 136.433 163.819  0.00  0.00     0.257 A 
HETATM   12  C   UNK     0     152.721 138.894 168.179  0.00  0.00     0.059 A 
HETATM   13  C   UNK     0     151.004 136.470 164.090  0.00  0.00     0.257 A 
HETATM   14  C   UNK     0     149.669 138.282 167.501  0.00  0.00     0.048 A 
HETATM   15  C   UNK     0     151.574 139.375 169.191  0.00  0.00     0.128 A 
HETATM   16  C   UNK     0     150.038 139.067 168.850  0.00  0.00     0.036 A 
HETATM   17  C   UNK     0     154.940 138.949 167.976  0.00  0.00     0.019 A 
HETATM   18  C   UNK     0     156.234 137.883 165.901  0.00  0.00     0.028 A 
HETATM   19  C   UNK     0     156.283 139.392 168.585  0.00  0.00     0.036 A 
HETATM   20  C   UNK     0     157.577 138.326 166.510  0.00  0.00     0.005 A 
HETATM   21  C   UNK     0     157.601 139.081 167.852  0.00  0.00     0.006 A 
ENDROOT
TORSDOF 0
ENDMDL
MODEL 9
REMARK VINA RESULT:      -9.0     42.662     44.714
REMARK  0 active torsions:
REMARK  status: ('A' for Active; 'I' for Inactive)
ROOT
HETATM    1 Cl   UNK     0     129.919 154.685 170.284  0.00  0.00    -0.100 Cl
HETATM    2 Cl   UNK     0     130.883 155.970 168.251  0.00  0.00    -0.158 Cl
HETATM    3  O   UNK     0     132.997 154.061 161.687  0.00  0.00    -0.165 OA
HETATM    4  O   UNK     0     132.273 151.386 162.455  0.00  0.00    -0.165 OA
HETATM    5  N   UNK     0     131.478 151.978 164.867  0.00  0.00    -0.222 NA
HETATM    6  N   UNK     0     132.350 155.198 163.942  0.00  0.00    -0.217 NA
HETATM    7  C   UNK     0     131.310 154.312 166.359  0.00  0.00     0.011 A 
HETATM    8  C   UNK     0     131.845 155.380 165.386  0.00  0.00     0.077 A 
HETATM    9  C   UNK     0     131.147 152.799 166.128  0.00  0.00     0.059 A 
HETATM   10  C   UNK     0     131.882 156.821 165.929  0.00  0.00     0.001 A 
HETATM   11  C   UNK     0     132.443 153.902 163.115  0.00  0.00     0.257 A 
HETATM   12  C   UNK     0     130.902 154.981 167.758  0.00  0.00     0.059 A 
HETATM   13  C   UNK     0     132.055 152.469 163.526  0.00  0.00     0.257 A 
HETATM   14  C   UNK     0     130.564 151.849 167.281  0.00  0.00     0.048 A 
HETATM   15  C   UNK     0     130.316 154.060 168.934  0.00  0.00     0.128 A 
HETATM   16  C   UNK     0     130.146 152.484 168.693  0.00  0.00     0.036 A 
HETATM   17  C   UNK     0     131.400 157.117 167.362  0.00  0.00     0.019 A 
HETATM   18  C   UNK     0     132.399 157.967 165.039  0.00  0.00     0.028 A 
HETATM   19  C   UNK     0     131.436 158.557 167.905  0.00  0.00     0.036 A 
HETATM   20  C   UNK     0     132.436 159.407 165.582  0.00  0.00     0.005 A 
HETATM   21  C   UNK     0     131.954 159.702 167.015  0.00  0.00     0.006 A 
ENDROOT
TORSDOF 0
ENDMDL
MODEL 10
REMARK VINA RESULT:      -8.8     42.821     44.929
REMARK  0 active torsions:
REMARK  status: ('A' for Active; 'I' for Inactive)
ROOT
HETATM    1 Cl   UNK     0     130.152 152.368 168.699  0.00  0.00    -0.100 Cl
HETATM    2 Cl   UNK     0     130.855 154.678 167.760  0.00  0.00    -0.158 Cl
HETATM    3  O   UNK     0     133.553 156.916 161.521  0.00  0.00    -0.165 OA
HETATM    4  O   UNK     0     133.441 154.157 160.718  0.00  0.00    -0.165 OA
HETATM    5  N   UNK     0     132.458 153.241 162.953  0.00  0.00    -0.222 NA
HETATM    6  N   UNK     0     132.592 156.561 163.919  0.00  0.00    -0.217 NA
HETATM    7  C   UNK     0     131.711 154.369 165.376  0.00  0.00     0.011 A 
HETATM    8  C   UNK     0     132.015 155.864 165.166  0.00  0.00     0.077 A 
HETATM    9  C   UNK     0     131.908 153.202 164.391  0.00  0.00     0.059 A 
HETATM   10  C   UNK     0     131.702 156.784 166.361  0.00  0.00     0.001 A 
HETATM   11  C   UNK     0     133.006 155.934 162.574  0.00  0.00     0.257 A 
HETATM   12  C   UNK     0     131.117 154.117 166.844  0.00  0.00     0.059 A 
HETATM   13  C   UNK     0     132.947 154.457 162.144  0.00  0.00     0.257 A 
HETATM   14  C   UNK     0     131.524 151.701 164.807  0.00  0.00     0.048 A 
HETATM   15  C   UNK     0     130.723 152.628 167.293  0.00  0.00     0.128 A 
HETATM   16  C   UNK     0     130.928 151.412 166.267  0.00  0.00     0.036 A 
HETATM   17  C   UNK     0     131.122 156.191 167.658  0.00  0.00     0.019 A 
HETATM   18  C   UNK     0     131.969 158.298 166.258  0.00  0.00     0.028 A 
HETATM   19  C   UNK     0     130.808 157.111 168.853  0.00  0.00     0.036 A 
HETATM   20  C   UNK     0     131.655 159.218 167.452  0.00  0.00     0.005 A 
HETATM   21  C   UNK     0     131.075 158.624 168.749  0.00  0.00     0.006 A 
ENDROOT
TORSDOF 0
ENDMDL
