MODEL 1
REMARK VINA RESULT:      -9.5      0.000      0.000
REMARK  1 active torsions:
REMARK  status: ('A' for Active; 'I' for Inactive)
REMARK    1  A    between atoms: C_10  and  C_15 
ROOT
HETATM    1 Cl   UNK     0     140.945 114.891 166.625  0.00  0.00    -0.091 Cl
HETATM    2  N   UNK     0     144.486 113.398 171.559  0.00  0.00    -0.300 N 
HETATM    3  N   UNK     0     144.543 110.263 170.093  0.00  0.00    -0.243 NA
HETATM    4  N   UNK     0     145.647 113.929 173.683  0.00  0.00    -0.251 NA
HETATM    5  C   UNK     0     143.633 113.597 170.291  0.00  0.00     0.040 A 
HETATM    6  C   UNK     0     145.189 112.120 172.052  0.00  0.00     0.086 A 
HETATM    7  C   UNK     0     143.274 112.566 169.204  0.00  0.00     0.012 A 
HETATM    8  C   UNK     0     145.215 110.725 171.400  0.00  0.00     0.114 A 
HETATM    9  C   UNK     0     143.679 111.082 169.116  0.00  0.00     0.077 A 
HETATM   10  C   UNK     0     144.771 114.511 172.569  0.00  0.00     0.120 A 
HETATM   11  C   UNK     0     145.904 112.455 173.363  0.00  0.00     0.172 A 
HETATM   12  C   UNK     0     143.107 115.109 170.198  0.00  0.00     0.049 A 
HETATM   13  C   UNK     0     142.364 112.977 167.949  0.00  0.00     0.062 A 
HETATM   14  C   UNK     0     144.267 115.963 172.481  0.00  0.00     0.072 C 
HETATM   15  C   UNK     0     142.194 115.554 168.956  0.00  0.00     0.040 A 
HETATM   16  C   UNK     0     141.820 114.481 167.824  0.00  0.00     0.018 A 
ENDROOT
BRANCH   9  17
HETATM   17  C   UNK     0     143.150 110.318 167.889  0.00  0.00     0.018 A 
HETATM   18  C   UNK     0     143.874 110.442 166.534  0.00  0.00     0.115 A 
HETATM   19  F   UNK     0     145.126 111.330 166.408  0.00  0.00    -0.209 F 
HETATM   20  C   UNK     0     143.345 109.678 165.306  0.00  0.00     0.056 A 
HETATM   21  C   UNK     0     142.093 108.790 165.432  0.00  0.00     0.007 A 
HETATM   22  C   UNK     0     141.370 108.666 166.785  0.00  0.00     0.005 A 
HETATM   23  C   UNK     0     141.899 109.430 168.014  0.00  0.00     0.030 A 
ENDBRANCH   9  17
TORSDOF 1
ENDMDL
MODEL 2
REMARK VINA RESULT:      -9.1     26.366     27.558
REMARK  1 active torsions:
REMARK  status: ('A' for Active; 'I' for Inactive)
REMARK    1  A    between atoms: C_10  and  C_15 
ROOT
HETATM    1 Cl   UNK     0     149.664 135.914 163.627  0.00  0.00    -0.091 Cl
HETATM    2  N   UNK     0     152.758 138.875 168.184  0.00  0.00    -0.300 N 
HETATM    3  N   UNK     0     155.550 138.026 166.325  0.00  0.00    -0.243 NA
HETATM    4  N   UNK     0     152.872 140.140 170.311  0.00  0.00    -0.251 NA
HETATM    5  C   UNK     0     152.154 138.116 166.987  0.00  0.00     0.040 A 
HETATM    6  C   UNK     0     154.237 139.181 168.480  0.00  0.00     0.086 A 
HETATM    7  C   UNK     0     152.883 137.475 165.790  0.00  0.00     0.012 A 
HETATM    8  C   UNK     0     155.480 138.803 167.652  0.00  0.00     0.114 A 
HETATM    9  C   UNK     0     154.394 137.435 165.496  0.00  0.00     0.077 A 
HETATM   10  C   UNK     0     151.919 139.470 169.317  0.00  0.00     0.120 A 
HETATM   11  C   UNK     0     154.301 139.962 169.794  0.00  0.00     0.172 A 
HETATM   12  C   UNK     0     150.556 138.048 167.110  0.00  0.00     0.049 A 
HETATM   13  C   UNK     0     152.064 136.721 164.636  0.00  0.00     0.062 A 
HETATM   14  C   UNK     0     150.386 139.405 169.438  0.00  0.00     0.072 C 
HETATM   15  C   UNK     0     149.706 137.302 165.973  0.00  0.00     0.040 A 
HETATM   16  C   UNK     0     150.465 136.634 164.728  0.00  0.00     0.018 A 
ENDROOT
BRANCH   9  17
HETATM   17  C   UNK     0     154.803 136.707 164.202  0.00  0.00     0.018 A 
HETATM   18  C   UNK     0     154.741 137.447 162.851  0.00  0.00     0.115 A 
HETATM   19  F   UNK     0     154.272 138.913 162.796  0.00  0.00    -0.209 F 
HETATM   20  C   UNK     0     155.149 136.720 161.557  0.00  0.00     0.056 A 
HETATM   21  C   UNK     0     155.619 135.255 161.612  0.00  0.00     0.007 A 
HETATM   22  C   UNK     0     155.680 134.516 162.961  0.00  0.00     0.005 A 
HETATM   23  C   UNK     0     155.272 135.242 164.256  0.00  0.00     0.030 A 
ENDBRANCH   9  17
TORSDOF 1
ENDMDL
MODEL 3
REMARK VINA RESULT:      -8.9      2.870      5.259
REMARK  1 active torsions:
REMARK  status: ('A' for Active; 'I' for Inactive)
REMARK    1  A    between atoms: C_10  and  C_15 
ROOT
HETATM    1 Cl   UNK     0     145.812 114.118 173.506  0.00  0.00    -0.091 Cl
HETATM    2  N   UNK     0     142.283 113.549 168.375  0.00  0.00    -0.300 N 
HETATM    3  N   UNK     0     143.398 110.274 168.429  0.00  0.00    -0.243 NA
HETATM    4  N   UNK     0     140.741 114.435 166.649  0.00  0.00    -0.251 NA
HETATM    5  C   UNK     0     143.193 113.518 169.618  0.00  0.00     0.040 A 
HETATM    6  C   UNK     0     141.951 112.406 167.399  0.00  0.00     0.086 A 
HETATM    7  C   UNK     0     143.996 112.334 170.190  0.00  0.00     0.012 A 
HETATM    8  C   UNK     0     142.447 110.948 167.422  0.00  0.00     0.114 A 
HETATM    9  C   UNK     0     144.087 110.890 169.660  0.00  0.00     0.077 A 
HETATM   10  C   UNK     0     141.533 114.799 167.908  0.00  0.00     0.120 A 
HETATM   11  C   UNK     0     140.999 112.959 166.335  0.00  0.00     0.172 A 
HETATM   12  C   UNK     0     143.232 114.957 170.324  0.00  0.00     0.049 A 
HETATM   13  C   UNK     0     144.893 112.509 171.507  0.00  0.00     0.062 A 
HETATM   14  C   UNK     0     141.569 116.181 168.584  0.00  0.00     0.072 C 
HETATM   15  C   UNK     0     144.118 115.167 171.644  0.00  0.00     0.040 A 
HETATM   16  C   UNK     0     144.955 113.934 172.240  0.00  0.00     0.018 A 
ENDROOT
BRANCH   9  17
HETATM   17  C   UNK     0     144.987 109.938 170.470  0.00  0.00     0.018 A 
HETATM   18  C   UNK     0     146.507 109.918 170.221  0.00  0.00     0.115 A 
HETATM   19  F   UNK     0     147.126 110.850 169.163  0.00  0.00    -0.209 F 
HETATM   20  C   UNK     0     147.407 108.967 171.030  0.00  0.00     0.056 A 
HETATM   21  C   UNK     0     146.787 108.035 172.089  0.00  0.00     0.007 A 
HETATM   22  C   UNK     0     145.268 108.056 172.338  0.00  0.00     0.005 A 
HETATM   23  C   UNK     0     144.367 109.007 171.528  0.00  0.00     0.030 A 
ENDBRANCH   9  17
TORSDOF 1
ENDMDL
MODEL 4
REMARK VINA RESULT:      -8.8     41.771     44.356
REMARK  1 active torsions:
REMARK  status: ('A' for Active; 'I' for Inactive)
REMARK    1  A    between atoms: C_10  and  C_15 
ROOT
HETATM    1 Cl   UNK     0     112.893 139.484 165.137  0.00  0.00    -0.091 Cl
HETATM    2  N   UNK     0     109.634 139.008 170.452  0.00  0.00    -0.300 N 
HETATM    3  N   UNK     0     107.418 141.123 168.842  0.00  0.00    -0.243 NA
HETATM    4  N   UNK     0     109.275 138.156 172.751  0.00  0.00    -0.251 NA
HETATM    5  C   UNK     0     110.307 139.232 169.085  0.00  0.00     0.040 A 
HETATM    6  C   UNK     0     108.304 139.583 170.974  0.00  0.00     0.086 A 
HETATM    7  C   UNK     0     109.815 140.087 167.901  0.00  0.00     0.012 A 
HETATM    8  C   UNK     0     107.318 140.525 170.257  0.00  0.00     0.114 A 
HETATM    9  C   UNK     0     108.529 140.929 167.793  0.00  0.00     0.077 A 
HETATM   10  C   UNK     0     110.229 138.128 171.554  0.00  0.00     0.120 A 
HETATM   11  C   UNK     0     108.088 139.053 172.393  0.00  0.00     0.172 A 
HETATM   12  C   UNK     0     111.689 138.423 168.998  0.00  0.00     0.049 A 
HETATM   13  C   UNK     0     110.672 140.191 166.549  0.00  0.00     0.062 A 
HETATM   14  C   UNK     0     111.555 137.350 171.472  0.00  0.00     0.072 C 
HETATM   15  C   UNK     0     112.570 138.504 167.661  0.00  0.00     0.040 A 
HETATM   16  C   UNK     0     112.059 139.394 166.428  0.00  0.00     0.018 A 
ENDROOT
BRANCH   9  17
HETATM   17  C   UNK     0     108.330 141.674 166.461  0.00  0.00     0.018 A 
HETATM   18  C   UNK     0     107.564 140.996 165.308  0.00  0.00     0.115 A 
HETATM   19  F   UNK     0     106.998 139.575 165.489  0.00  0.00    -0.209 F 
HETATM   20  C   UNK     0     107.364 141.740 163.975  0.00  0.00     0.056 A 
HETATM   21  C   UNK     0     107.930 143.162 163.794  0.00  0.00     0.007 A 
HETATM   22  C   UNK     0     108.695 143.838 164.946  0.00  0.00     0.005 A 
HETATM   23  C   UNK     0     108.895 143.094 166.280  0.00  0.00     0.030 A 
ENDBRANCH   9  17
TORSDOF 1
ENDMDL
MODEL 5
REMARK VINA RESULT:      -8.8     41.567     44.103
REMARK  1 active torsions:
REMARK  status: ('A' for Active; 'I' for Inactive)
REMARK    1  A    between atoms: C_10  and  C_15 
ROOT
HETATM    1 Cl   UNK     0     113.238 137.604 168.200  0.00  0.00    -0.091 Cl
HETATM    2  N   UNK     0     108.353 139.426 171.654  0.00  0.00    -0.300 N 
HETATM    3  N   UNK     0     107.294 140.893 168.703  0.00  0.00    -0.243 NA
HETATM    4  N   UNK     0     107.074 139.552 173.772  0.00  0.00    -0.251 NA
HETATM    5  C   UNK     0     109.479 139.062 170.667  0.00  0.00     0.040 A 
HETATM    6  C   UNK     0     107.074 140.241 171.392  0.00  0.00     0.086 A 
HETATM    7  C   UNK     0     109.601 139.423 169.174  0.00  0.00     0.012 A 
HETATM    8  C   UNK     0     106.602 140.894 170.079  0.00  0.00     0.114 A 
HETATM    9  C   UNK     0     108.629 140.238 168.301  0.00  0.00     0.077 A 
HETATM   10  C   UNK     0     108.348 139.003 173.124  0.00  0.00     0.120 A 
HETATM   11  C   UNK     0     106.288 140.315 172.704  0.00  0.00     0.172 A 
HETATM   12  C   UNK     0     110.612 138.194 171.400  0.00  0.00     0.049 A 
HETATM   13  C   UNK     0     110.865 138.942 168.312  0.00  0.00     0.062 A 
HETATM   14  C   UNK     0     109.435 138.171 173.830  0.00  0.00     0.072 C 
HETATM   15  C   UNK     0     111.889 137.697 170.568  0.00  0.00     0.040 A 
HETATM   16  C   UNK     0     112.017 138.074 169.014  0.00  0.00     0.018 A 
ENDROOT
BRANCH   9  17
HETATM   17  C   UNK     0     109.048 140.422 166.830  0.00  0.00     0.018 A 
HETATM   18  C   UNK     0     108.766 139.307 165.805  0.00  0.00     0.115 A 
HETATM   19  F   UNK     0     108.066 138.009 166.250  0.00  0.00    -0.209 F 
HETATM   20  C   UNK     0     109.185 139.490 164.335  0.00  0.00     0.056 A 
HETATM   21  C   UNK     0     109.884 140.788 163.889  0.00  0.00     0.007 A 
HETATM   22  C   UNK     0     110.166 141.902 164.914  0.00  0.00     0.005 A 
HETATM   23  C   UNK     0     109.747 141.719 166.385  0.00  0.00     0.030 A 
ENDBRANCH   9  17
TORSDOF 1
ENDMDL
MODEL 6
REMARK VINA RESULT:      -8.7     26.570     28.966
REMARK  1 active torsions:
REMARK  status: ('A' for Active; 'I' for Inactive)
REMARK    1  A    between atoms: C_10  and  C_15 
ROOT
HETATM    1 Cl   UNK     0     151.485 143.425 165.076  0.00  0.00    -0.091 Cl
HETATM    2  N   UNK     0     152.874 138.068 162.165  0.00  0.00    -0.300 N 
HETATM    3  N   UNK     0     152.381 136.677 165.296  0.00  0.00    -0.243 NA
HETATM    4  N   UNK     0     153.499 136.739 160.169  0.00  0.00    -0.251 NA
HETATM    5  C   UNK     0     152.513 139.290 163.030  0.00  0.00     0.040 A 
HETATM    6  C   UNK     0     152.988 136.592 162.589  0.00  0.00     0.086 A 
HETATM    7  C   UNK     0     152.176 139.338 164.533  0.00  0.00     0.012 A 
HETATM    8  C   UNK     0     152.768 135.973 163.982  0.00  0.00     0.114 A 
HETATM    9  C   UNK     0     152.118 138.174 165.541  0.00  0.00     0.077 A 
HETATM   10  C   UNK     0     153.191 138.153 160.671  0.00  0.00     0.120 A 
HETATM   11  C   UNK     0     153.374 135.777 161.352  0.00  0.00     0.172 A 
HETATM   12  C   UNK     0     152.520 140.628 162.145  0.00  0.00     0.049 A 
HETATM   13  C   UNK     0     151.824 140.726 165.253  0.00  0.00     0.062 A 
HETATM   14  C   UNK     0     153.198 139.436 159.820  0.00  0.00     0.072 C 
HETATM   15  C   UNK     0     152.172 142.034 162.834  0.00  0.00     0.040 A 
HETATM   16  C   UNK     0     151.822 142.083 164.398  0.00  0.00     0.018 A 
ENDROOT
BRANCH   9  17
HETATM   17  C   UNK     0     151.746 138.561 166.984  0.00  0.00     0.018 A 
HETATM   18  C   UNK     0     150.280 138.481 167.449  0.00  0.00     0.115 A 
HETATM   19  F   UNK     0     149.186 138.014 166.471  0.00  0.00    -0.209 F 
HETATM   20  C   UNK     0     149.907 138.867 168.892  0.00  0.00     0.056 A 
HETATM   21  C   UNK     0     151.001 139.334 169.871  0.00  0.00     0.007 A 
HETATM   22  C   UNK     0     152.467 139.414 169.406  0.00  0.00     0.005 A 
HETATM   23  C   UNK     0     152.839 139.027 167.962  0.00  0.00     0.030 A 
ENDBRANCH   9  17
TORSDOF 1
ENDMDL
MODEL 7
REMARK VINA RESULT:      -8.6      2.334      3.732
REMARK  1 active torsions:
REMARK  status: ('A' for Active; 'I' for Inactive)
REMARK    1  A    between atoms: C_10  and  C_15 
ROOT
HETATM    1 Cl   UNK     0     145.281 107.973 170.008  0.00  0.00    -0.091 Cl
HETATM    2  N   UNK     0     144.055 114.000 171.139  0.00  0.00    -0.300 N 
HETATM    3  N   UNK     0     142.339 113.824 168.139  0.00  0.00    -0.243 NA
HETATM    4  N   UNK     0     144.210 116.065 172.500  0.00  0.00    -0.251 NA
HETATM    5  C   UNK     0     144.263 112.535 170.711  0.00  0.00     0.040 A 
HETATM    6  C   UNK     0     143.277 115.111 170.412  0.00  0.00     0.086 A 
HETATM    7  C   UNK     0     143.742 111.820 169.449  0.00  0.00     0.012 A 
HETATM    8  C   UNK     0     142.512 115.033 169.077  0.00  0.00     0.114 A 
HETATM    9  C   UNK     0     142.886 112.394 168.305  0.00  0.00     0.077 A 
HETATM   10  C   UNK     0     144.629 114.594 172.427  0.00  0.00     0.120 A 
HETATM   11  C   UNK     0     143.376 116.384 171.257  0.00  0.00     0.172 A 
HETATM   12  C   UNK     0     145.149 111.751 171.794  0.00  0.00     0.049 A 
HETATM   13  C   UNK     0     144.072 110.273 169.185  0.00  0.00     0.062 A 
HETATM   14  C   UNK     0     145.480 113.844 173.468  0.00  0.00     0.072 C 
HETATM   15  C   UNK     0     145.497 110.203 171.561  0.00  0.00     0.040 A 
HETATM   16  C   UNK     0     144.955 109.459 170.248  0.00  0.00     0.018 A 
ENDROOT
BRANCH   9  17
HETATM   17  C   UNK     0     142.530 111.407 167.178  0.00  0.00     0.018 A 
HETATM   18  C   UNK     0     143.403 111.340 165.910  0.00  0.00     0.115 A 
HETATM   19  F   UNK     0     144.631 112.259 165.770  0.00  0.00    -0.209 F 
HETATM   20  C   UNK     0     143.049 110.353 164.783  0.00  0.00     0.056 A 
HETATM   21  C   UNK     0     141.821 109.433 164.922  0.00  0.00     0.007 A 
HETATM   22  C   UNK     0     140.949 109.501 166.189  0.00  0.00     0.005 A 
HETATM   23  C   UNK     0     141.303 110.488 167.317  0.00  0.00     0.030 A 
ENDBRANCH   9  17
TORSDOF 1
ENDMDL
MODEL 8
REMARK VINA RESULT:      -8.5     26.262     27.818
REMARK  1 active torsions:
REMARK  status: ('A' for Active; 'I' for Inactive)
REMARK    1  A    between atoms: C_10  and  C_15 
ROOT
HETATM    1 Cl   UNK     0     157.915 137.859 165.544  0.00  0.00    -0.091 Cl
HETATM    2  N   UNK     0     152.363 138.833 168.253  0.00  0.00    -0.300 N 
HETATM    3  N   UNK     0     151.131 137.270 165.422  0.00  0.00    -0.243 NA
HETATM    4  N   UNK     0     150.919 139.671 170.084  0.00  0.00    -0.251 NA
HETATM    5  C   UNK     0     153.641 138.517 167.452  0.00  0.00     0.040 A 
HETATM    6  C   UNK     0     150.900 138.529 167.885  0.00  0.00     0.086 A 
HETATM    7  C   UNK     0     153.770 137.819 166.085  0.00  0.00     0.012 A 
HETATM    8  C   UNK     0     150.351 137.833 166.625  0.00  0.00     0.114 A 
HETATM    9  C   UNK     0     152.652 137.264 165.182  0.00  0.00     0.077 A 
HETATM   10  C   UNK     0     152.369 139.538 169.611  0.00  0.00     0.120 A 
HETATM   11  C   UNK     0     150.013 139.048 169.019  0.00  0.00     0.172 A 
HETATM   12  C   UNK     0     154.941 139.027 168.242  0.00  0.00     0.049 A 
HETATM   13  C   UNK     0     155.207 137.582 165.414  0.00  0.00     0.062 A 
HETATM   14  C   UNK     0     153.616 140.028 170.371  0.00  0.00     0.072 C 
HETATM   15  C   UNK     0     156.394 138.807 167.599  0.00  0.00     0.040 A 
HETATM   16  C   UNK     0     156.528 138.079 166.176  0.00  0.00     0.018 A 
ENDROOT
BRANCH   9  17
HETATM   17  C   UNK     0     153.119 136.617 163.865  0.00  0.00     0.018 A 
HETATM   18  C   UNK     0     152.981 137.388 162.538  0.00  0.00     0.115 A 
HETATM   19  F   UNK     0     152.377 138.805 162.529  0.00  0.00    -0.209 F 
HETATM   20  C   UNK     0     153.447 136.742 161.220  0.00  0.00     0.056 A 
HETATM   21  C   UNK     0     154.051 135.326 161.229  0.00  0.00     0.007 A 
HETATM   22  C   UNK     0     154.189 134.555 162.555  0.00  0.00     0.005 A 
HETATM   23  C   UNK     0     153.722 135.201 163.873  0.00  0.00     0.030 A 
ENDBRANCH   9  17
TORSDOF 1
ENDMDL
MODEL 9
REMARK VINA RESULT:      -8.4      3.550      5.409
REMARK  1 active torsions:
REMARK  status: ('A' for Active; 'I' for Inactive)
REMARK    1  A    between atoms: C_10  and  C_15 
ROOT
HETATM    1 Cl   UNK     0     147.728 116.946 167.830  0.00  0.00    -0.091 Cl
HETATM    2  N   UNK     0     148.135 113.156 172.788  0.00  0.00    -0.300 N 
HETATM    3  N   UNK     0     144.723 112.803 172.325  0.00  0.00    -0.243 NA
HETATM    4  N   UNK     0     149.390 112.010 174.591  0.00  0.00    -0.251 NA
HETATM    5  C   UNK     0     147.860 114.054 171.566  0.00  0.00     0.040 A 
HETATM    6  C   UNK     0     147.138 112.311 173.602  0.00  0.00     0.086 A 
HETATM    7  C   UNK     0     146.520 114.327 170.857  0.00  0.00     0.012 A 
HETATM    8  C   UNK     0     145.620 112.154 173.396  0.00  0.00     0.114 A 
HETATM    9  C   UNK     0     145.124 113.770 171.196  0.00  0.00     0.077 A 
HETATM   10  C   UNK     0     149.523 112.966 173.403  0.00  0.00     0.120 A 
HETATM   11  C   UNK     0     147.919 111.606 174.714  0.00  0.00     0.172 A 
HETATM   12  C   UNK     0     149.217 114.738 171.054  0.00  0.00     0.049 A 
HETATM   13  C   UNK     0     146.445 115.304 169.588  0.00  0.00     0.062 A 
HETATM   14  C   UNK     0     150.827 113.623 172.913  0.00  0.00     0.072 C 
HETATM   15  C   UNK     0     149.178 115.721 169.787  0.00  0.00     0.040 A 
HETATM   16  C   UNK     0     147.783 116.005 169.049  0.00  0.00     0.018 A 
ENDROOT
BRANCH   9  17
HETATM   17  C   UNK     0     143.978 114.244 170.283  0.00  0.00     0.018 A 
HETATM   18  C   UNK     0     143.314 115.612 170.529  0.00  0.00     0.115 A 
HETATM   19  F   UNK     0     143.795 116.505 171.688  0.00  0.00    -0.209 F 
HETATM   20  C   UNK     0     142.168 116.086 169.616  0.00  0.00     0.056 A 
HETATM   21  C   UNK     0     141.686 115.193 168.458  0.00  0.00     0.007 A 
HETATM   22  C   UNK     0     142.351 113.826 168.212  0.00  0.00     0.005 A 
HETATM   23  C   UNK     0     143.497 113.351 169.124  0.00  0.00     0.030 A 
ENDBRANCH   9  17
TORSDOF 1
ENDMDL
MODEL 10
REMARK VINA RESULT:      -8.4     41.555     44.141
REMARK  1 active torsions:
REMARK  status: ('A' for Active; 'I' for Inactive)
REMARK    1  A    between atoms: C_10  and  C_15 
ROOT
HETATM    1 Cl   UNK     0     105.455 141.860 169.497  0.00  0.00    -0.091 Cl
HETATM    2  N   UNK     0     110.945 138.974 168.707  0.00  0.00    -0.300 N 
HETATM    3  N   UNK     0     110.376 137.823 171.921  0.00  0.00    -0.243 NA
HETATM    4  N   UNK     0     112.961 138.389 167.389  0.00  0.00    -0.251 NA
HETATM    5  C   UNK     0     109.590 139.612 169.063  0.00  0.00     0.040 A 
HETATM    6  C   UNK     0     111.829 138.052 169.567  0.00  0.00     0.086 A 
HETATM    7  C   UNK     0     108.783 139.485 170.370  0.00  0.00     0.012 A 
HETATM    8  C   UNK     0     111.576 137.540 170.998  0.00  0.00     0.114 A 
HETATM    9  C   UNK     0     109.133 138.689 171.641  0.00  0.00     0.077 A 
HETATM   10  C   UNK     0     111.649 139.178 167.363  0.00  0.00     0.120 A 
HETATM   11  C   UNK     0     113.072 137.695 168.748  0.00  0.00     0.172 A 
HETATM   12  C   UNK     0     109.046 140.499 167.843  0.00  0.00     0.049 A 
HETATM   13  C   UNK     0     107.377 140.237 170.545  0.00  0.00     0.062 A 
HETATM   14  C   UNK     0     111.129 140.030 166.190  0.00  0.00     0.072 C 
HETATM   15  C   UNK     0     107.644 141.264 167.984  0.00  0.00     0.040 A 
HETATM   16  C   UNK     0     106.803 141.132 169.344  0.00  0.00     0.018 A 
ENDROOT
BRANCH   9  17
HETATM   17  C   UNK     0     108.104 138.770 172.784  0.00  0.00     0.018 A 
HETATM   18  C   UNK     0     106.774 137.999 172.678  0.00  0.00     0.115 A 
HETATM   19  F   UNK     0     106.475 137.147 171.429  0.00  0.00    -0.209 F 
HETATM   20  C   UNK     0     105.745 138.079 173.819  0.00  0.00     0.056 A 
HETATM   21  C   UNK     0     106.044 138.931 175.067  0.00  0.00     0.007 A 
HETATM   22  C   UNK     0     107.372 139.701 175.173  0.00  0.00     0.005 A 
HETATM   23  C   UNK     0     108.403 139.621 174.031  0.00  0.00     0.030 A 
ENDBRANCH   9  17
TORSDOF 1
ENDMDL
