MODEL 1
REMARK VINA RESULT:      -9.3      0.000      0.000
REMARK  4 active torsions:
REMARK  status: ('A' for Active; 'I' for Inactive)
REMARK    1  A    between atoms: O_1  and  C_15 
REMARK    2  A    between atoms: O_1  and  C_22 
REMARK    3  A    between atoms: O_2  and  C_19 
REMARK    4  A    between atoms: C_21  and  C_22 
ROOT
HETATM    1  O   UNK     0     145.536 111.418 172.120  0.00  0.00    -0.290 OA
HETATM    2  O   UNK     0     142.549 111.724 167.710  0.00  0.00     0.000 OA
HETATM    3  O   UNK     0     143.113 108.754 167.122  0.00  0.00    -0.223 OA
HETATM    4  O   UNK     0     141.944 111.058 166.461  0.00  0.00     0.000 OA
HETATM    5  N   UNK     0     143.197 116.026 170.798  0.00  0.00    -0.254 NA
HETATM    6  N   UNK     0     142.831 110.239 167.416  0.00  0.00     0.000 N 
HETATM    7  C   UNK     0     143.761 113.056 170.210  0.00  0.00     0.006 A 
HETATM    8  C   UNK     0     144.367 113.722 171.460  0.00  0.00     0.060 A 
HETATM    9  C   UNK     0     142.873 113.875 169.254  0.00  0.00     0.038 A 
HETATM   10  C   UNK     0     144.043 111.571 169.916  0.00  0.00    -0.001 A 
HETATM   11  C   UNK     0     144.085 115.207 171.754  0.00  0.00     0.063 A 
HETATM   12  C   UNK     0     142.591 115.360 169.548  0.00  0.00     0.061 A 
HETATM   13  C   UNK     0     145.254 112.903 172.414  0.00  0.00     0.200 A 
HETATM   14  C   UNK     0     143.437 110.905 168.666  0.00  0.00     0.061 A 
HETATM   15  C   UNK     0     144.931 110.752 170.871  0.00  0.00     0.076 A 
HETATM   16  C   UNK     0     144.690 115.873 173.003  0.00  0.00     0.052 C 
HETATM   17  C   UNK     0     142.267 113.209 168.004  0.00  0.00     0.117 A 
HETATM   18  C   UNK     0     141.703 116.180 168.593  0.00  0.00     0.052 C 
HETATM   19  C   UNK     0     143.719 109.420 168.372  0.00  0.00     0.157 A 
HETATM   20  C   UNK     0     145.213 109.267 170.577  0.00  0.00     0.054 A 
HETATM   21  C   UNK     0     144.607 108.601 169.328  0.00  0.00     0.040 A 
ENDROOT
BRANCH  13  22
HETATM   22  O   UNK     0     145.860 113.569 173.664  0.00  0.00    -0.311 OA
BRANCH  22  23
HETATM   23  C   UNK     0     146.527 112.705 174.750  0.00  0.00     0.151 C 
BRANCH  23  24
HETATM   24  C   UNK     0     147.891 113.119 175.333  0.00  0.00     0.030 C 
HETATM   25  C   UNK     0     147.962 113.836 176.694  0.00  0.00     0.003 C 
HETATM   26  C   UNK     0     149.185 112.815 174.554  0.00  0.00     0.003 C 
ENDBRANCH  23  24
ENDBRANCH  22  23
ENDBRANCH  13  22
BRANCH  17  27
HETATM   27  O   UNK     0     141.380 114.028 167.050  0.00  0.00    -0.326 OA
HETATM   28  C   UNK     0     141.739 114.122 165.555  0.00  0.00     0.181 C 
ENDBRANCH  17  27
TORSDOF 4
ENDMDL
MODEL 2
REMARK VINA RESULT:      -9.2      2.613      5.659
REMARK  4 active torsions:
REMARK  status: ('A' for Active; 'I' for Inactive)
REMARK    1  A    between atoms: O_1  and  C_15 
REMARK    2  A    between atoms: O_1  and  C_22 
REMARK    3  A    between atoms: O_2  and  C_19 
REMARK    4  A    between atoms: C_21  and  C_22 
ROOT
HETATM    1  O   UNK     0     143.033 109.238 168.050  0.00  0.00    -0.290 OA
HETATM    2  O   UNK     0     142.299 114.462 168.845  0.00  0.00     0.000 OA
HETATM    3  O   UNK     0     140.366 114.555 166.448  0.00  0.00    -0.223 OA
HETATM    4  O   UNK     0     141.632 115.791 168.444  0.00  0.00     0.000 OA
HETATM    5  N   UNK     0     145.564 111.711 172.042  0.00  0.00    -0.254 NA
HETATM    6  N   UNK     0     141.332 114.509 167.646  0.00  0.00     0.000 N 
HETATM    7  C   UNK     0     143.632 111.803 169.646  0.00  0.00     0.006 A 
HETATM    8  C   UNK     0     144.299 110.474 170.046  0.00  0.00     0.060 A 
HETATM    9  C   UNK     0     143.932 113.086 170.444  0.00  0.00     0.038 A 
HETATM   10  C   UNK     0     142.666 111.850 168.447  0.00  0.00    -0.001 A 
HETATM   11  C   UNK     0     145.265 110.428 171.245  0.00  0.00     0.063 A 
HETATM   12  C   UNK     0     144.898 113.040 171.642  0.00  0.00     0.061 A 
HETATM   13  C   UNK     0     143.999 109.192 169.249  0.00  0.00     0.200 A 
HETATM   14  C   UNK     0     141.999 113.179 168.047  0.00  0.00     0.061 A 
HETATM   15  C   UNK     0     142.367 110.567 167.650  0.00  0.00     0.076 A 
HETATM   16  C   UNK     0     145.932 109.099 171.645  0.00  0.00     0.052 C 
HETATM   17  C   UNK     0     143.265 114.416 170.043  0.00  0.00     0.117 A 
HETATM   18  C   UNK     0     145.197 114.323 172.440  0.00  0.00     0.052 C 
HETATM   19  C   UNK     0     141.033 113.225 166.849  0.00  0.00     0.157 A 
HETATM   20  C   UNK     0     141.400 110.613 166.451  0.00  0.00     0.054 A 
HETATM   21  C   UNK     0     140.734 111.942 166.051  0.00  0.00     0.040 A 
ENDROOT
BRANCH  13  22
HETATM   22  O   UNK     0     144.666 107.862 169.649  0.00  0.00    -0.311 OA
BRANCH  22  23
HETATM   23  C   UNK     0     143.814 106.718 170.227  0.00  0.00     0.151 C 
BRANCH  23  24
HETATM   24  C   UNK     0     142.610 107.036 171.133  0.00  0.00     0.030 C 
HETATM   25  C   UNK     0     142.834 107.403 172.612  0.00  0.00     0.003 C 
HETATM   26  C   UNK     0     141.181 106.987 170.560  0.00  0.00     0.003 C 
ENDBRANCH  23  24
ENDBRANCH  22  23
ENDBRANCH  13  22
BRANCH  17  27
HETATM   27  O   UNK     0     143.564 115.698 170.841  0.00  0.00    -0.326 OA
HETATM   28  C   UNK     0     144.565 116.731 170.290  0.00  0.00     0.181 C 
ENDBRANCH  17  27
TORSDOF 4
ENDMDL
MODEL 3
REMARK VINA RESULT:      -9.1      2.272      7.168
REMARK  4 active torsions:
REMARK  status: ('A' for Active; 'I' for Inactive)
REMARK    1  A    between atoms: O_1  and  C_15 
REMARK    2  A    between atoms: O_1  and  C_22 
REMARK    3  A    between atoms: O_2  and  C_19 
REMARK    4  A    between atoms: C_21  and  C_22 
ROOT
HETATM    1  O   UNK     0     142.241 110.639 166.685  0.00  0.00    -0.290 OA
HETATM    2  O   UNK     0     143.247 114.518 170.207  0.00  0.00     0.000 OA
HETATM    3  O   UNK     0     141.479 116.449 168.585  0.00  0.00    -0.223 OA
HETATM    4  O   UNK     0     143.056 115.970 170.682  0.00  0.00     0.000 OA
HETATM    5  N   UNK     0     145.396 109.681 170.878  0.00  0.00    -0.254 NA
HETATM    6  N   UNK     0     142.363 115.483 169.396  0.00  0.00     0.000 N 
HETATM    7  C   UNK     0     143.628 111.613 169.256  0.00  0.00     0.006 A 
HETATM    8  C   UNK     0     143.819 110.160 168.781  0.00  0.00     0.060 A 
HETATM    9  C   UNK     0     144.321 112.100 170.543  0.00  0.00     0.038 A 
HETATM   10  C   UNK     0     142.744 112.578 168.446  0.00  0.00    -0.001 A 
HETATM   11  C   UNK     0     144.703 109.194 169.592  0.00  0.00     0.063 A 
HETATM   12  C   UNK     0     145.205 111.134 171.354  0.00  0.00     0.061 A 
HETATM   13  C   UNK     0     143.125 109.674 167.495  0.00  0.00     0.200 A 
HETATM   14  C   UNK     0     142.553 114.031 168.921  0.00  0.00     0.061 A 
HETATM   15  C   UNK     0     142.051 112.091 167.159  0.00  0.00     0.076 A 
HETATM   16  C   UNK     0     144.894 107.742 169.117  0.00  0.00     0.052 C 
HETATM   17  C   UNK     0     144.131 113.552 171.018  0.00  0.00     0.117 A 
HETATM   18  C   UNK     0     145.899 111.621 172.640  0.00  0.00     0.052 C 
HETATM   19  C   UNK     0     141.669 114.996 168.110  0.00  0.00     0.157 A 
HETATM   20  C   UNK     0     141.166 113.057 166.348  0.00  0.00     0.054 A 
HETATM   21  C   UNK     0     140.976 114.510 166.824  0.00  0.00     0.040 A 
ENDROOT
BRANCH  13  22
HETATM   22  O   UNK     0     143.316 108.221 167.020  0.00  0.00    -0.311 OA
BRANCH  22  23
HETATM   23  C   UNK     0     142.094 107.299 166.853  0.00  0.00     0.151 C 
BRANCH  23  24
HETATM   24  C   UNK     0     141.358 106.764 168.095  0.00  0.00     0.030 C 
HETATM   25  C   UNK     0     141.015 107.716 169.257  0.00  0.00     0.003 C 
HETATM   26  C   UNK     0     140.964 105.278 168.176  0.00  0.00     0.003 C 
ENDBRANCH  23  24
ENDBRANCH  22  23
ENDBRANCH  13  22
BRANCH  17  27
HETATM   27  O   UNK     0     144.824 114.038 172.304  0.00  0.00    -0.326 OA
HETATM   28  C   UNK     0     145.920 115.117 172.226  0.00  0.00     0.181 C 
ENDBRANCH  17  27
TORSDOF 4
ENDMDL
MODEL 4
REMARK VINA RESULT:      -9.0      2.114      5.333
REMARK  4 active torsions:
REMARK  status: ('A' for Active; 'I' for Inactive)
REMARK    1  A    between atoms: O_1  and  C_15 
REMARK    2  A    between atoms: O_1  and  C_22 
REMARK    3  A    between atoms: O_2  and  C_19 
REMARK    4  A    between atoms: C_21  and  C_22 
ROOT
HETATM    1  O   UNK     0     145.816 111.185 172.617  0.00  0.00    -0.290 OA
HETATM    2  O   UNK     0     142.973 114.479 169.531  0.00  0.00     0.000 OA
HETATM    3  O   UNK     0     143.390 116.750 171.569  0.00  0.00    -0.223 OA
HETATM    4  O   UNK     0     142.366 115.870 169.269  0.00  0.00     0.000 OA
HETATM    5  N   UNK     0     143.768 109.426 168.016  0.00  0.00    -0.254 NA
HETATM    6  N   UNK     0     143.181 115.614 170.550  0.00  0.00     0.000 N 
HETATM    7  C   UNK     0     144.186 111.696 170.055  0.00  0.00     0.006 A 
HETATM    8  C   UNK     0     144.792 110.305 170.317  0.00  0.00     0.060 A 
HETATM    9  C   UNK     0     143.370 111.952 168.773  0.00  0.00     0.038 A 
HETATM   10  C   UNK     0     144.395 112.832 171.074  0.00  0.00    -0.001 A 
HETATM   11  C   UNK     0     144.584 109.170 169.298  0.00  0.00     0.063 A 
HETATM   12  C   UNK     0     143.162 110.817 167.754  0.00  0.00     0.061 A 
HETATM   13  C   UNK     0     145.607 110.050 171.598  0.00  0.00     0.200 A 
HETATM   14  C   UNK     0     143.788 114.223 170.812  0.00  0.00     0.061 A 
HETATM   15  C   UNK     0     145.210 112.576 172.355  0.00  0.00     0.076 A 
HETATM   16  C   UNK     0     145.190 107.779 169.559  0.00  0.00     0.052 C 
HETATM   17  C   UNK     0     142.764 113.344 168.511  0.00  0.00     0.117 A 
HETATM   18  C   UNK     0     142.346 111.073 166.473  0.00  0.00     0.052 C 
HETATM   19  C   UNK     0     143.997 115.358 171.831  0.00  0.00     0.157 A 
HETATM   20  C   UNK     0     145.419 113.711 173.375  0.00  0.00     0.054 A 
HETATM   21  C   UNK     0     144.812 115.102 173.113  0.00  0.00     0.040 A 
ENDROOT
BRANCH  13  22
HETATM   22  O   UNK     0     146.214 108.658 171.860  0.00  0.00    -0.311 OA
BRANCH  22  23
HETATM   23  C   UNK     0     145.763 107.840 173.083  0.00  0.00     0.151 C 
BRANCH  23  24
HETATM   24  C   UNK     0     144.358 108.056 173.678  0.00  0.00     0.030 C 
HETATM   25  C   UNK     0     143.111 107.611 172.892  0.00  0.00     0.003 C 
HETATM   26  C   UNK     0     144.202 108.717 175.060  0.00  0.00     0.003 C 
ENDBRANCH  23  24
ENDBRANCH  22  23
ENDBRANCH  13  22
BRANCH  17  27
HETATM   27  O   UNK     0     141.949 113.599 167.230  0.00  0.00    -0.326 OA
HETATM   28  C   UNK     0     140.529 114.188 167.326  0.00  0.00     0.181 C 
ENDBRANCH  17  27
TORSDOF 4
ENDMDL
MODEL 5
REMARK VINA RESULT:      -9.0     40.770     44.859
REMARK  4 active torsions:
REMARK  status: ('A' for Active; 'I' for Inactive)
REMARK    1  A    between atoms: O_1  and  C_15 
REMARK    2  A    between atoms: O_1  and  C_22 
REMARK    3  A    between atoms: O_2  and  C_19 
REMARK    4  A    between atoms: C_21  and  C_22 
ROOT
HETATM    1  O   UNK     0     106.845 141.137 169.645  0.00  0.00    -0.290 OA
HETATM    2  O   UNK     0     111.264 138.182 170.100  0.00  0.00     0.000 OA
HETATM    3  O   UNK     0     110.512 137.504 173.008  0.00  0.00    -0.223 OA
HETATM    4  O   UNK     0     112.180 137.274 170.940  0.00  0.00     0.000 OA
HETATM    5  N   UNK     0     110.183 140.677 165.509  0.00  0.00    -0.254 NA
HETATM    6  N   UNK     0     110.888 137.843 171.554  0.00  0.00     0.000 N 
HETATM    7  C   UNK     0     109.431 139.999 168.418  0.00  0.00     0.006 A 
HETATM    8  C   UNK     0     108.514 140.907 167.577  0.00  0.00     0.060 A 
HETATM    9  C   UNK     0     110.724 139.429 167.804  0.00  0.00     0.038 A 
HETATM   10  C   UNK     0     109.054 139.660 169.872  0.00  0.00    -0.001 A 
HETATM   11  C   UNK     0     108.890 141.246 166.123  0.00  0.00     0.063 A 
HETATM   12  C   UNK     0     111.100 139.768 166.350  0.00  0.00     0.061 A 
HETATM   13  C   UNK     0     107.222 141.476 168.191  0.00  0.00     0.200 A 
HETATM   14  C   UNK     0     109.971 138.751 170.713  0.00  0.00     0.061 A 
HETATM   15  C   UNK     0     107.761 140.229 170.486  0.00  0.00     0.076 A 
HETATM   16  C   UNK     0     107.974 142.154 165.282  0.00  0.00     0.052 C 
HETATM   17  C   UNK     0     111.640 138.521 168.645  0.00  0.00     0.117 A 
HETATM   18  C   UNK     0     112.393 139.199 165.736  0.00  0.00     0.052 C 
HETATM   19  C   UNK     0     109.595 138.412 172.168  0.00  0.00     0.157 A 
HETATM   20  C   UNK     0     107.385 139.890 171.940  0.00  0.00     0.054 A 
HETATM   21  C   UNK     0     108.302 138.982 172.781  0.00  0.00     0.040 A 
ENDROOT
BRANCH  13  22
HETATM   22  O   UNK     0     106.305 142.384 167.350  0.00  0.00    -0.311 OA
BRANCH  22  23
HETATM   23  C   UNK     0     106.170 143.877 167.701  0.00  0.00     0.151 C 
BRANCH  23  24
HETATM   24  C   UNK     0     107.389 144.659 168.224  0.00  0.00     0.030 C 
HETATM   25  C   UNK     0     107.574 144.876 169.737  0.00  0.00     0.003 C 
HETATM   26  C   UNK     0     108.424 145.224 167.233  0.00  0.00     0.003 C 
ENDBRANCH  23  24
ENDBRANCH  22  23
ENDBRANCH  13  22
BRANCH  17  27
HETATM   27  O   UNK     0     112.932 137.952 168.031  0.00  0.00    -0.326 OA
HETATM   28  C   UNK     0     113.023 136.455 167.678  0.00  0.00     0.181 C 
ENDBRANCH  17  27
TORSDOF 4
ENDMDL
MODEL 6
REMARK VINA RESULT:      -9.0     25.344     28.104
REMARK  4 active torsions:
REMARK  status: ('A' for Active; 'I' for Inactive)
REMARK    1  A    between atoms: O_1  and  C_15 
REMARK    2  A    between atoms: O_1  and  C_22 
REMARK    3  A    between atoms: O_2  and  C_19 
REMARK    4  A    between atoms: C_21  and  C_22 
ROOT
HETATM    1  O   UNK     0     152.820 137.128 164.131  0.00  0.00    -0.290 OA
HETATM    2  O   UNK     0     152.602 139.194 169.045  0.00  0.00     0.000 OA
HETATM    3  O   UNK     0     149.536 138.899 169.033  0.00  0.00    -0.223 OA
HETATM    4  O   UNK     0     151.781 139.637 170.269  0.00  0.00     0.000 OA
HETATM    5  N   UNK     0     157.309 138.604 166.605  0.00  0.00    -0.254 NA
HETATM    6  N   UNK     0     151.069 139.047 169.039  0.00  0.00     0.000 N 
HETATM    7  C   UNK     0     154.244 138.308 166.593  0.00  0.00     0.006 A 
HETATM    8  C   UNK     0     155.065 137.866 165.368  0.00  0.00     0.060 A 
HETATM    9  C   UNK     0     154.955 138.899 167.825  0.00  0.00     0.038 A 
HETATM   10  C   UNK     0     152.711 138.161 166.587  0.00  0.00    -0.001 A 
HETATM   11  C   UNK     0     156.598 138.013 165.374  0.00  0.00     0.063 A 
HETATM   12  C   UNK     0     156.488 139.046 167.831  0.00  0.00     0.061 A 
HETATM   13  C   UNK     0     154.353 137.276 164.137  0.00  0.00     0.200 A 
HETATM   14  C   UNK     0     151.890 138.604 167.813  0.00  0.00     0.061 A 
HETATM   15  C   UNK     0     151.999 137.570 165.356  0.00  0.00     0.076 A 
HETATM   16  C   UNK     0     157.418 137.571 164.149  0.00  0.00     0.052 C 
HETATM   17  C   UNK     0     154.134 139.342 169.051  0.00  0.00     0.117 A 
HETATM   18  C   UNK     0     157.200 139.637 169.063  0.00  0.00     0.052 C 
HETATM   19  C   UNK     0     150.357 138.456 167.807  0.00  0.00     0.157 A 
HETATM   20  C   UNK     0     150.466 137.423 165.350  0.00  0.00     0.054 A 
HETATM   21  C   UNK     0     149.645 137.866 166.575  0.00  0.00     0.040 A 
ENDROOT
BRANCH  13  22
HETATM   22  O   UNK     0     155.174 136.833 162.911  0.00  0.00    -0.311 OA
BRANCH  22  23
HETATM   23  C   UNK     0     155.219 135.347 162.511  0.00  0.00     0.151 C 
BRANCH  23  24
HETATM   24  C   UNK     0     154.974 134.256 163.571  0.00  0.00     0.030 C 
HETATM   25  C   UNK     0     156.064 133.934 164.611  0.00  0.00     0.003 C 
HETATM   26  C   UNK     0     153.639 133.488 163.591  0.00  0.00     0.003 C 
ENDBRANCH  23  24
ENDBRANCH  22  23
ENDBRANCH  13  22
BRANCH  17  27
HETATM   27  O   UNK     0     154.846 139.932 170.281  0.00  0.00    -0.326 OA
HETATM   28  C   UNK     0     154.630 141.409 170.662  0.00  0.00     0.181 C 
ENDBRANCH  17  27
TORSDOF 4
ENDMDL
MODEL 7
REMARK VINA RESULT:      -8.9     25.571     27.902
REMARK  4 active torsions:
REMARK  status: ('A' for Active; 'I' for Inactive)
REMARK    1  A    between atoms: O_1  and  C_15 
REMARK    2  A    between atoms: O_1  and  C_22 
REMARK    3  A    between atoms: O_2  and  C_19 
REMARK    4  A    between atoms: C_21  and  C_22 
ROOT
HETATM    1  O   UNK     0     155.329 139.198 168.368  0.00  0.00    -0.290 OA
HETATM    2  O   UNK     0     153.089 136.804 164.158  0.00  0.00     0.000 OA
HETATM    3  O   UNK     0     155.875 136.394 162.910  0.00  0.00    -0.223 OA
HETATM    4  O   UNK     0     153.226 136.104 162.795  0.00  0.00     0.000 OA
HETATM    5  N   UNK     0     150.031 138.617 168.137  0.00  0.00    -0.254 NA
HETATM    6  N   UNK     0     154.482 136.599 163.534  0.00  0.00     0.000 N 
HETATM    7  C   UNK     0     152.817 138.206 166.888  0.00  0.00     0.006 A 
HETATM    8  C   UNK     0     152.680 138.907 168.253  0.00  0.00     0.060 A 
HETATM    9  C   UNK     0     151.560 137.710 166.148  0.00  0.00     0.038 A 
HETATM   10  C   UNK     0     154.209 138.001 166.263  0.00  0.00    -0.001 A 
HETATM   11  C   UNK     0     151.288 139.113 168.877  0.00  0.00     0.063 A 
HETATM   12  C   UNK     0     150.168 137.916 166.772  0.00  0.00     0.061 A 
HETATM   13  C   UNK     0     153.936 139.403 168.992  0.00  0.00     0.200 A 
HETATM   14  C   UNK     0     154.346 137.300 164.899  0.00  0.00     0.061 A 
HETATM   15  C   UNK     0     155.466 138.497 167.004  0.00  0.00     0.076 A 
HETATM   16  C   UNK     0     151.151 139.813 170.241  0.00  0.00     0.052 C 
HETATM   17  C   UNK     0     151.697 137.009 164.783  0.00  0.00     0.117 A 
HETATM   18  C   UNK     0     148.911 137.420 166.032  0.00  0.00     0.052 C 
HETATM   19  C   UNK     0     155.738 137.095 164.274  0.00  0.00     0.157 A 
HETATM   20  C   UNK     0     156.858 138.292 166.379  0.00  0.00     0.054 A 
HETATM   21  C   UNK     0     156.995 137.591 165.015  0.00  0.00     0.040 A 
ENDROOT
BRANCH  13  22
HETATM   22  O   UNK     0     153.800 140.104 170.357  0.00  0.00    -0.311 OA
BRANCH  22  23
HETATM   23  C   UNK     0     154.615 141.376 170.654  0.00  0.00     0.151 C 
BRANCH  23  24
HETATM   24  C   UNK     0     154.465 142.614 169.751  0.00  0.00     0.030 C 
HETATM   25  C   UNK     0     155.297 143.879 170.034  0.00  0.00     0.003 C 
HETATM   26  C   UNK     0     153.483 142.588 168.565  0.00  0.00     0.003 C 
ENDBRANCH  23  24
ENDBRANCH  22  23
ENDBRANCH  13  22
BRANCH  17  27
HETATM   27  O   UNK     0     150.441 136.514 164.043  0.00  0.00    -0.326 OA
HETATM   28  C   UNK     0     150.333 135.040 163.610  0.00  0.00     0.181 C 
ENDBRANCH  17  27
TORSDOF 4
ENDMDL
MODEL 8
REMARK VINA RESULT:      -8.7      2.368      8.054
REMARK  4 active torsions:
REMARK  status: ('A' for Active; 'I' for Inactive)
REMARK    1  A    between atoms: O_1  and  C_15 
REMARK    2  A    between atoms: O_1  and  C_22 
REMARK    3  A    between atoms: O_2  and  C_19 
REMARK    4  A    between atoms: C_21  and  C_22 
ROOT
HETATM    1  O   UNK     0     142.540 112.368 167.347  0.00  0.00    -0.290 OA
HETATM    2  O   UNK     0     144.561 113.797 172.073  0.00  0.00     0.000 OA
HETATM    3  O   UNK     0     143.426 116.636 171.700  0.00  0.00    -0.223 OA
HETATM    4  O   UNK     0     144.782 114.864 173.161  0.00  0.00     0.000 OA
HETATM    5  N   UNK     0     145.252 108.824 170.270  0.00  0.00    -0.254 NA
HETATM    6  N   UNK     0     143.993 115.217 171.887  0.00  0.00     0.000 N 
HETATM    7  C   UNK     0     144.118 111.663 169.896  0.00  0.00     0.006 A 
HETATM    8  C   UNK     0     143.896 110.596 168.808  0.00  0.00     0.060 A 
HETATM    9  C   UNK     0     144.906 111.310 171.172  0.00  0.00     0.038 A 
HETATM   10  C   UNK     0     143.550 113.082 169.710  0.00  0.00    -0.001 A 
HETATM   11  C   UNK     0     144.463 109.176 168.994  0.00  0.00     0.063 A 
HETATM   12  C   UNK     0     145.474 109.891 171.358  0.00  0.00     0.061 A 
HETATM   13  C   UNK     0     143.108 110.949 167.534  0.00  0.00     0.200 A 
HETATM   14  C   UNK     0     143.772 114.149 170.798  0.00  0.00     0.061 A 
HETATM   15  C   UNK     0     142.762 113.435 168.435  0.00  0.00     0.076 A 
HETATM   16  C   UNK     0     144.242 108.110 167.907  0.00  0.00     0.052 C 
HETATM   17  C   UNK     0     145.128 112.378 172.260  0.00  0.00     0.117 A 
HETATM   18  C   UNK     0     146.262 109.538 172.633  0.00  0.00     0.052 C 
HETATM   19  C   UNK     0     143.205 115.569 170.612  0.00  0.00     0.157 A 
HETATM   20  C   UNK     0     142.194 114.854 168.248  0.00  0.00     0.054 A 
HETATM   21  C   UNK     0     142.416 115.921 169.336  0.00  0.00     0.040 A 
ENDROOT
BRANCH  13  22
HETATM   22  O   UNK     0     142.886 109.882 166.445  0.00  0.00    -0.311 OA
BRANCH  22  23
HETATM   23  C   UNK     0     142.448 110.304 165.031  0.00  0.00     0.151 C 
BRANCH  23  24
HETATM   24  C   UNK     0     142.093 109.233 163.983  0.00  0.00     0.030 C 
HETATM   25  C   UNK     0     142.211 109.556 162.481  0.00  0.00     0.003 C 
HETATM   26  C   UNK     0     141.620 107.839 164.436  0.00  0.00     0.003 C 
ENDBRANCH  23  24
ENDBRANCH  22  23
ENDBRANCH  13  22
BRANCH  17  27
HETATM   27  O   UNK     0     145.916 112.025 173.534  0.00  0.00    -0.326 OA
HETATM   28  C   UNK     0     147.265 112.712 173.820  0.00  0.00     0.181 C 
ENDBRANCH  17  27
TORSDOF 4
ENDMDL
MODEL 9
REMARK VINA RESULT:      -8.7     40.872     44.621
REMARK  4 active torsions:
REMARK  status: ('A' for Active; 'I' for Inactive)
REMARK    1  A    between atoms: O_1  and  C_15 
REMARK    2  A    between atoms: O_1  and  C_22 
REMARK    3  A    between atoms: O_2  and  C_19 
REMARK    4  A    between atoms: C_21  and  C_22 
ROOT
HETATM    1  O   UNK     0     108.543 138.750 172.332  0.00  0.00    -0.290 OA
HETATM    2  O   UNK     0     111.014 139.442 167.654  0.00  0.00     0.000 OA
HETATM    3  O   UNK     0     113.371 137.724 168.645  0.00  0.00    -0.223 OA
HETATM    4  O   UNK     0     112.220 139.185 166.733  0.00  0.00     0.000 OA
HETATM    5  N   UNK     0     106.243 141.673 168.507  0.00  0.00    -0.254 NA
HETATM    6  N   UNK     0     112.192 138.583 168.150  0.00  0.00     0.000 N 
HETATM    7  C   UNK     0     108.600 139.955 169.498  0.00  0.00     0.006 A 
HETATM    8  C   UNK     0     107.393 140.212 170.420  0.00  0.00     0.060 A 
HETATM    9  C   UNK     0     108.629 140.557 168.081  0.00  0.00     0.038 A 
HETATM   10  C   UNK     0     109.778 139.096 169.993  0.00  0.00    -0.001 A 
HETATM   11  C   UNK     0     106.215 141.070 169.925  0.00  0.00     0.063 A 
HETATM   12  C   UNK     0     107.450 141.416 167.585  0.00  0.00     0.061 A 
HETATM   13  C   UNK     0     107.365 139.609 171.836  0.00  0.00     0.200 A 
HETATM   14  C   UNK     0     110.985 138.840 169.071  0.00  0.00     0.061 A 
HETATM   15  C   UNK     0     109.750 138.494 171.411  0.00  0.00     0.076 A 
HETATM   16  C   UNK     0     105.008 141.327 170.846  0.00  0.00     0.052 C 
HETATM   17  C   UNK     0     109.836 140.301 167.159  0.00  0.00     0.117 A 
HETATM   18  C   UNK     0     107.479 142.019 166.168  0.00  0.00     0.052 C 
HETATM   19  C   UNK     0     112.164 137.981 169.567  0.00  0.00     0.157 A 
HETATM   20  C   UNK     0     110.928 137.635 171.906  0.00  0.00     0.054 A 
HETATM   21  C   UNK     0     112.135 137.378 170.984  0.00  0.00     0.040 A 
ENDROOT
BRANCH  13  22
HETATM   22  O   UNK     0     106.158 139.866 172.758  0.00  0.00    -0.311 OA
BRANCH  22  23
HETATM   23  C   UNK     0     106.095 139.202 174.146  0.00  0.00     0.151 C 
BRANCH  23  24
HETATM   24  C   UNK     0     106.863 139.818 175.330  0.00  0.00     0.030 C 
HETATM   25  C   UNK     0     106.971 139.051 176.661  0.00  0.00     0.003 C 
HETATM   26  C   UNK     0     107.523 141.202 175.183  0.00  0.00     0.003 C 
ENDBRANCH  23  24
ENDBRANCH  22  23
ENDBRANCH  13  22
BRANCH  17  27
HETATM   27  O   UNK     0     109.864 140.903 165.742  0.00  0.00    -0.326 OA
HETATM   28  C   UNK     0     110.947 141.931 165.364  0.00  0.00     0.181 C 
ENDBRANCH  17  27
TORSDOF 4
ENDMDL
MODEL 10
REMARK VINA RESULT:      -8.7     41.360     45.057
REMARK  4 active torsions:
REMARK  status: ('A' for Active; 'I' for Inactive)
REMARK    1  A    between atoms: O_1  and  C_15 
REMARK    2  A    between atoms: O_1  and  C_22 
REMARK    3  A    between atoms: O_2  and  C_19 
REMARK    4  A    between atoms: C_21  and  C_22 
ROOT
HETATM    1  O   UNK     0     107.151 140.005 171.852  0.00  0.00    -0.290 OA
HETATM    2  O   UNK     0     111.376 138.596 168.913  0.00  0.00     0.000 OA
HETATM    3  O   UNK     0     112.591 137.158 171.350  0.00  0.00    -0.223 OA
HETATM    4  O   UNK     0     112.735 137.885 168.788  0.00  0.00     0.000 OA
HETATM    5  N   UNK     0     107.440 141.459 166.727  0.00  0.00    -0.254 NA
HETATM    6  N   UNK     0     111.983 137.877 170.132  0.00  0.00     0.000 N 
HETATM    7  C   UNK     0     108.655 140.020 169.164  0.00  0.00     0.006 A 
HETATM    8  C   UNK     0     107.295 140.732 169.290  0.00  0.00     0.060 A 
HETATM    9  C   UNK     0     109.408 140.028 167.820  0.00  0.00     0.038 A 
HETATM   10  C   UNK     0     109.263 139.301 170.383  0.00  0.00    -0.001 A 
HETATM   11  C   UNK     0     106.687 141.451 168.071  0.00  0.00     0.063 A 
HETATM   12  C   UNK     0     108.800 140.747 166.601  0.00  0.00     0.061 A 
HETATM   13  C   UNK     0     106.544 140.725 170.633  0.00  0.00     0.200 A 
HETATM   14  C   UNK     0     110.623 138.589 170.257  0.00  0.00     0.061 A 
HETATM   15  C   UNK     0     108.511 139.294 171.727  0.00  0.00     0.076 A 
HETATM   16  C   UNK     0     105.328 142.163 168.196  0.00  0.00     0.052 C 
HETATM   17  C   UNK     0     110.768 139.316 167.695  0.00  0.00     0.117 A 
HETATM   18  C   UNK     0     109.552 140.754 165.257  0.00  0.00     0.052 C 
HETATM   19  C   UNK     0     111.231 137.870 171.476  0.00  0.00     0.157 A 
HETATM   20  C   UNK     0     109.119 138.575 172.945  0.00  0.00     0.054 A 
HETATM   21  C   UNK     0     110.479 137.863 172.820  0.00  0.00     0.040 A 
ENDROOT
BRANCH  13  22
HETATM   22  O   UNK     0     105.184 141.436 170.758  0.00  0.00    -0.311 OA
BRANCH  22  23
HETATM   23  C   UNK     0     105.000 142.569 171.784  0.00  0.00     0.151 C 
BRANCH  23  24
HETATM   24  C   UNK     0     106.170 143.520 172.100  0.00  0.00     0.030 C 
HETATM   25  C   UNK     0     106.703 143.633 173.541  0.00  0.00     0.003 C 
HETATM   26  C   UNK     0     106.807 144.357 170.975  0.00  0.00     0.003 C 
ENDBRANCH  23  24
ENDBRANCH  22  23
ENDBRANCH  13  22
BRANCH  17  27
HETATM   27  O   UNK     0     111.519 139.323 166.351  0.00  0.00    -0.326 OA
HETATM   28  C   UNK     0     112.857 140.076 166.221  0.00  0.00     0.181 C 
ENDBRANCH  17  27
TORSDOF 4
ENDMDL
