MODEL 1
REMARK VINA RESULT:      -8.6      0.000      0.000
REMARK  1 active torsions:
REMARK  status: ('A' for Active; 'I' for Inactive)
REMARK    1  A    between atoms: C_3  and  C_9 
ROOT
HETATM    1  C   UNK     0     143.776 113.133 169.997  0.00  0.00     0.013 A 
HETATM    2  N   UNK     0     144.549 110.744 169.764  0.00  0.00    -0.241 NA
HETATM    3  C   UNK     0     143.816 112.015 169.336  0.00  0.00     0.071 A 
HETATM    4  N   UNK     0     145.146 113.054 172.298  0.00  0.00    -0.223 NA
HETATM    5  C   UNK     0     144.374 113.631 171.349  0.00  0.00     0.059 A 
HETATM    6  C   UNK     0     145.676 111.619 172.271  0.00  0.00     0.232 A 
HETATM    7  C   UNK     0     142.920 114.105 169.164  0.00  0.00     0.062 A 
HETATM    8  C   UNK     0     145.390 110.553 171.084  0.00  0.00     0.146 A 
HETATM    9  C   UNK     0     144.109 115.069 171.834  0.00  0.00     0.051 A 
HETATM   10  O   UNK     0     146.538 111.166 173.455  0.00  0.00    -0.168 OA
HETATM   11  C   UNK     0     142.660 115.535 169.651  0.00  0.00     0.018 A 
HETATM   12  C   UNK     0     143.254 116.017 170.986  0.00  0.00     0.040 A 
HETATM   13 Cl   UNK     0     141.796 116.502 168.799  0.00  0.00    -0.091 Cl
ENDROOT
BRANCH   3  14
HETATM   14  C   UNK     0     143.057 111.968 168.003  0.00  0.00    -0.027 A 
HETATM   15  C   UNK     0     141.786 111.118 167.869  0.00  0.00     0.024 A 
HETATM   16  C   UNK     0     141.022 111.065 166.544  0.00  0.00     0.004 A 
HETATM   17  C   UNK     0     141.541 111.875 165.337  0.00  0.00     0.001 A 
HETATM   18  C   UNK     0     142.815 112.735 165.449  0.00  0.00     0.004 A 
HETATM   19  C   UNK     0     143.575 112.778 166.797  0.00  0.00     0.024 A 
ENDBRANCH   3  14
TORSDOF 1
ENDMDL
MODEL 2
REMARK VINA RESULT:      -8.5      3.480      5.993
REMARK  1 active torsions:
REMARK  status: ('A' for Active; 'I' for Inactive)
REMARK    1  A    between atoms: C_3  and  C_9 
ROOT
HETATM    1  C   UNK     0     144.455 113.609 167.828  0.00  0.00     0.013 A 
HETATM    2  N   UNK     0     142.167 112.813 168.528  0.00  0.00    -0.241 NA
HETATM    3  C   UNK     0     143.513 113.514 168.716  0.00  0.00     0.071 A 
HETATM    4  N   UNK     0     143.846 112.423 165.504  0.00  0.00    -0.223 NA
HETATM    5  C   UNK     0     144.632 113.120 166.357  0.00  0.00     0.059 A 
HETATM    6  C   UNK     0     142.445 111.888 165.810  0.00  0.00     0.232 A 
HETATM    7  C   UNK     0     145.602 114.399 168.486  0.00  0.00     0.062 A 
HETATM    8  C   UNK     0     141.675 112.077 167.223  0.00  0.00     0.146 A 
HETATM    9  C   UNK     0     145.929 113.426 165.585  0.00  0.00     0.051 A 
HETATM   10  O   UNK     0     141.728 111.120 164.694  0.00  0.00    -0.168 OA
HETATM   11  C   UNK     0     146.891 114.701 167.713  0.00  0.00     0.018 A 
HETATM   12  C   UNK     0     147.054 114.214 166.263  0.00  0.00     0.040 A 
HETATM   13 Cl   UNK     0     148.035 115.498 168.392  0.00  0.00    -0.091 Cl
ENDROOT
BRANCH   3  14
HETATM   14  C   UNK     0     143.775 114.166 170.080  0.00  0.00    -0.027 A 
HETATM   15  C   UNK     0     143.273 115.588 170.364  0.00  0.00     0.024 A 
HETATM   16  C   UNK     0     143.530 116.247 171.721  0.00  0.00     0.004 A 
HETATM   17  C   UNK     0     144.300 115.468 172.808  0.00  0.00     0.001 A 
HETATM   18  C   UNK     0     144.813 114.039 172.546  0.00  0.00     0.004 A 
HETATM   19  C   UNK     0     144.544 113.388 171.167  0.00  0.00     0.024 A 
ENDBRANCH   3  14
TORSDOF 1
ENDMDL
MODEL 3
REMARK VINA RESULT:      -8.2     41.788     44.260
REMARK  1 active torsions:
REMARK  status: ('A' for Active; 'I' for Inactive)
REMARK    1  A    between atoms: C_3  and  C_9 
ROOT
HETATM    1  C   UNK     0     131.291 154.345 166.143  0.00  0.00     0.013 A 
HETATM    2  N   UNK     0     132.196 155.238 163.965  0.00  0.00    -0.241 NA
HETATM    3  C   UNK     0     131.651 155.340 165.390  0.00  0.00     0.071 A 
HETATM    4  N   UNK     0     131.584 151.959 164.961  0.00  0.00    -0.223 NA
HETATM    5  C   UNK     0     131.251 152.795 165.970  0.00  0.00     0.059 A 
HETATM    6  C   UNK     0     132.141 152.377 163.597  0.00  0.00     0.232 A 
HETATM    7  C   UNK     0     130.816 154.952 167.476  0.00  0.00     0.062 A 
HETATM    8  C   UNK     0     132.421 153.908 163.148  0.00  0.00     0.146 A 
HETATM    9  C   UNK     0     130.745 151.897 167.116  0.00  0.00     0.051 A 
HETATM   10  O   UNK     0     132.453 151.261 162.594  0.00  0.00    -0.168 OA
HETATM   11  C   UNK     0     130.315 154.054 168.612  0.00  0.00     0.018 A 
HETATM   12  C   UNK     0     130.279 152.527 168.432  0.00  0.00     0.040 A 
HETATM   13 Cl   UNK     0     129.840 154.682 169.949  0.00  0.00    -0.091 Cl
ENDROOT
BRANCH   3  14
HETATM   14  C   UNK     0     131.517 156.747 165.986  0.00  0.00    -0.027 A 
HETATM   15  C   UNK     0     132.761 157.492 166.489  0.00  0.00     0.024 A 
HETATM   16  C   UNK     0     132.638 158.897 167.086  0.00  0.00     0.004 A 
HETATM   17  C   UNK     0     131.248 159.561 167.179  0.00  0.00     0.001 A 
HETATM   18  C   UNK     0     129.986 158.831 166.680  0.00  0.00     0.004 A 
HETATM   19  C   UNK     0     130.129 157.411 166.079  0.00  0.00     0.024 A 
ENDBRANCH   3  14
TORSDOF 1
ENDMDL
MODEL 4
REMARK VINA RESULT:      -8.1      3.126      5.243
REMARK  1 active torsions:
REMARK  status: ('A' for Active; 'I' for Inactive)
REMARK    1  A    between atoms: C_3  and  C_9 
ROOT
HETATM    1  C   UNK     0     143.659 113.343 169.970  0.00  0.00     0.013 A 
HETATM    2  N   UNK     0     143.180 111.566 168.246  0.00  0.00    -0.241 NA
HETATM    3  C   UNK     0     143.822 112.139 169.509  0.00  0.00     0.071 A 
HETATM    4  N   UNK     0     142.023 114.841 168.467  0.00  0.00    -0.223 NA
HETATM    5  C   UNK     0     142.844 114.593 169.513  0.00  0.00     0.059 A 
HETATM    6  C   UNK     0     141.656 113.850 167.360  0.00  0.00     0.232 A 
HETATM    7  C   UNK     0     144.505 113.441 171.253  0.00  0.00     0.062 A 
HETATM    8  C   UNK     0     142.203 112.327 167.270  0.00  0.00     0.146 A 
HETATM    9  C   UNK     0     142.891 115.895 170.335  0.00  0.00     0.051 A 
HETATM   10  O   UNK     0     140.704 114.341 166.265  0.00  0.00    -0.168 OA
HETATM   11  C   UNK     0     144.547 114.739 172.067  0.00  0.00     0.018 A 
HETATM   12  C   UNK     0     143.740 115.965 171.608  0.00  0.00     0.040 A 
HETATM   13 Cl   UNK     0     145.405 114.820 173.357  0.00  0.00    -0.091 Cl
ENDROOT
BRANCH   3  14
HETATM   14  C   UNK     0     144.745 111.209 170.307  0.00  0.00    -0.027 A 
HETATM   15  C   UNK     0     146.228 111.561 170.484  0.00  0.00     0.024 A 
HETATM   16  C   UNK     0     147.156 110.639 171.279  0.00  0.00     0.004 A 
HETATM   17  C   UNK     0     146.589 109.347 171.903  0.00  0.00     0.001 A 
HETATM   18  C   UNK     0     145.102 108.974 171.737  0.00  0.00     0.004 A 
HETATM   19  C   UNK     0     144.177 109.918 170.931  0.00  0.00     0.024 A 
ENDBRANCH   3  14
TORSDOF 1
ENDMDL
MODEL 5
REMARK VINA RESULT:      -8.1     71.618     73.761
REMARK  1 active torsions:
REMARK  status: ('A' for Active; 'I' for Inactive)
REMARK    1  A    between atoms: C_3  and  C_9 
ROOT
HETATM    1  C   UNK     0     110.961 152.717 117.056  0.00  0.00     0.013 A 
HETATM    2  N   UNK     0     109.214 153.280 115.327  0.00  0.00    -0.241 NA
HETATM    3  C   UNK     0     109.733 152.992 116.735  0.00  0.00     0.071 A 
HETATM    4  N   UNK     0     112.625 152.689 114.956  0.00  0.00    -0.223 NA
HETATM    5  C   UNK     0     112.297 152.574 116.263  0.00  0.00     0.059 A 
HETATM    6  C   UNK     0     111.659 153.025 113.816  0.00  0.00     0.232 A 
HETATM    7  C   UNK     0     110.981 152.507 118.581  0.00  0.00     0.062 A 
HETATM    8  C   UNK     0     110.073 153.297 114.004  0.00  0.00     0.146 A 
HETATM    9  C   UNK     0     113.606 152.228 117.000  0.00  0.00     0.051 A 
HETATM   10  O   UNK     0     112.243 153.106 112.402  0.00  0.00    -0.168 OA
HETATM   11  C   UNK     0     112.286 152.164 119.309  0.00  0.00     0.018 A 
HETATM   12  C   UNK     0     113.598 152.024 118.518  0.00  0.00     0.040 A 
HETATM   13 Cl   UNK     0     112.288 151.955 120.846  0.00  0.00    -0.091 Cl
ENDROOT
BRANCH   3  14
HETATM   14  C   UNK     0     108.708 153.030 117.877  0.00  0.00    -0.027 A 
HETATM   15  C   UNK     0     107.883 151.780 118.213  0.00  0.00     0.024 A 
HETATM   16  C   UNK     0     106.858 151.808 119.351  0.00  0.00     0.004 A 
HETATM   17  C   UNK     0     106.660 153.107 120.160  0.00  0.00     0.001 A 
HETATM   18  C   UNK     0     107.478 154.373 119.840  0.00  0.00     0.004 A 
HETATM   19  C   UNK     0     108.510 154.327 118.686  0.00  0.00     0.024 A 
ENDBRANCH   3  14
TORSDOF 1
ENDMDL
MODEL 6
REMARK VINA RESULT:      -8.1     41.695     43.424
REMARK  1 active torsions:
REMARK  status: ('A' for Active; 'I' for Inactive)
REMARK    1  A    between atoms: C_3  and  C_9 
ROOT
HETATM    1  C   UNK     0     109.570 139.313 169.379  0.00  0.00     0.013 A 
HETATM    2  N   UNK     0     107.425 140.578 168.983  0.00  0.00    -0.241 NA
HETATM    3  C   UNK     0     108.775 139.975 168.594  0.00  0.00     0.071 A 
HETATM    4  N   UNK     0     108.630 139.063 171.876  0.00  0.00    -0.223 NA
HETATM    5  C   UNK     0     109.527 138.885 170.879  0.00  0.00     0.059 A 
HETATM    6  C   UNK     0     107.299 139.809 171.761  0.00  0.00     0.232 A 
HETATM    7  C   UNK     0     110.793 138.915 168.532  0.00  0.00     0.062 A 
HETATM    8  C   UNK     0     106.750 140.510 170.407  0.00  0.00     0.146 A 
HETATM    9  C   UNK     0     110.689 138.080 171.492  0.00  0.00     0.051 A 
HETATM   10  O   UNK     0     106.430 139.894 173.020  0.00  0.00    -0.168 OA
HETATM   11  C   UNK     0     111.946 138.114 169.148  0.00  0.00     0.018 A 
HETATM   12  C   UNK     0     111.894 137.697 170.627  0.00  0.00     0.040 A 
HETATM   13 Cl   UNK     0     113.171 137.722 168.279  0.00  0.00    -0.091 Cl
ENDROOT
BRANCH   3  14
HETATM   14  C   UNK     0     109.233 140.167 167.142  0.00  0.00    -0.027 A 
HETATM   15  C   UNK     0     109.839 141.505 166.697  0.00  0.00     0.024 A 
HETATM   16  C   UNK     0     110.299 141.707 165.251  0.00  0.00     0.004 A 
HETATM   17  C   UNK     0     110.148 140.551 164.239  0.00  0.00     0.001 A 
HETATM   18  C   UNK     0     109.543 139.199 164.665  0.00  0.00     0.004 A 
HETATM   19  C   UNK     0     109.083 139.012 166.132  0.00  0.00     0.024 A 
ENDBRANCH   3  14
TORSDOF 1
ENDMDL
MODEL 7
REMARK VINA RESULT:      -8.0     25.012     27.143
REMARK  1 active torsions:
REMARK  status: ('A' for Active; 'I' for Inactive)
REMARK    1  A    between atoms: C_3  and  C_9 
ROOT
HETATM    1  C   UNK     0     153.561 137.056 165.097  0.00  0.00     0.013 A 
HETATM    2  N   UNK     0     154.965 138.711 166.380  0.00  0.00    -0.241 NA
HETATM    3  C   UNK     0     153.663 138.093 165.872  0.00  0.00     0.071 A 
HETATM    4  N   UNK     0     155.929 136.011 164.406  0.00  0.00    -0.223 NA
HETATM    5  C   UNK     0     154.578 136.090 164.415  0.00  0.00     0.059 A 
HETATM    6  C   UNK     0     156.887 136.951 165.141  0.00  0.00     0.232 A 
HETATM    7  C   UNK     0     152.056 136.824 164.868  0.00  0.00     0.062 A 
HETATM    8  C   UNK     0     156.424 138.205 166.057  0.00  0.00     0.146 A 
HETATM    9  C   UNK     0     154.079 134.929 163.533  0.00  0.00     0.051 A 
HETATM   10  O   UNK     0     158.388 136.680 164.994  0.00  0.00    -0.168 OA
HETATM   11  C   UNK     0     151.565 135.668 163.990  0.00  0.00     0.018 A 
HETATM   12  C   UNK     0     152.576 134.721 163.322  0.00  0.00     0.040 A 
HETATM   13 Cl   UNK     0     150.044 135.449 163.771  0.00  0.00    -0.091 Cl
ENDROOT
BRANCH   3  14
HETATM   14  C   UNK     0     152.354 138.758 166.319  0.00  0.00    -0.027 A 
HETATM   15  C   UNK     0     151.744 138.416 167.685  0.00  0.00     0.024 A 
HETATM   16  C   UNK     0     150.439 139.075 168.140  0.00  0.00     0.004 A 
HETATM   17  C   UNK     0     149.738 140.089 167.211  0.00  0.00     0.001 A 
HETATM   18  C   UNK     0     150.333 140.447 165.835  0.00  0.00     0.004 A 
HETATM   19  C   UNK     0     151.654 139.771 165.391  0.00  0.00     0.024 A 
ENDBRANCH   3  14
TORSDOF 1
ENDMDL
MODEL 8
REMARK VINA RESULT:      -7.8     41.930     43.662
REMARK  1 active torsions:
REMARK  status: ('A' for Active; 'I' for Inactive)
REMARK    1  A    between atoms: C_3  and  C_9 
ROOT
HETATM    1  C   UNK     0     109.038 139.608 168.832  0.00  0.00     0.013 A 
HETATM    2  N   UNK     0     107.806 140.672 166.906  0.00  0.00    -0.241 NA
HETATM    3  C   UNK     0     108.960 139.925 167.575  0.00  0.00     0.071 A 
HETATM    4  N   UNK     0     106.913 140.400 170.259  0.00  0.00    -0.223 NA
HETATM    5  C   UNK     0     108.118 139.814 170.075  0.00  0.00     0.059 A 
HETATM    6  C   UNK     0     106.071 141.077 169.175  0.00  0.00     0.232 A 
HETATM    7  C   UNK     0     110.377 138.871 169.018  0.00  0.00     0.062 A 
HETATM    8  C   UNK     0     106.499 141.196 167.617  0.00  0.00     0.146 A 
HETATM    9  C   UNK     0     108.549 139.286 171.458  0.00  0.00     0.051 A 
HETATM   10  O   UNK     0     104.729 141.681 169.603  0.00  0.00    -0.168 OA
HETATM   11  C   UNK     0     110.800 138.348 170.395  0.00  0.00     0.018 A 
HETATM   12  C   UNK     0     109.886 138.556 171.614  0.00  0.00     0.040 A 
HETATM   13 Cl   UNK     0     112.153 137.607 170.563  0.00  0.00    -0.091 Cl
ENDROOT
BRANCH   3  14
HETATM   14  C   UNK     0     110.135 139.510 166.679  0.00  0.00    -0.027 A 
HETATM   15  C   UNK     0     111.253 140.512 166.363  0.00  0.00     0.024 A 
HETATM   16  C   UNK     0     112.430 140.108 165.471  0.00  0.00     0.004 A 
HETATM   17  C   UNK     0     112.484 138.680 164.889  0.00  0.00     0.001 A 
HETATM   18  C   UNK     0     111.371 137.657 165.193  0.00  0.00     0.004 A 
HETATM   19  C   UNK     0     110.189 138.083 166.098  0.00  0.00     0.024 A 
ENDBRANCH   3  14
TORSDOF 1
ENDMDL
MODEL 9
REMARK VINA RESULT:      -7.7     60.583     61.851
REMARK  1 active torsions:
REMARK  status: ('A' for Active; 'I' for Inactive)
REMARK    1  A    between atoms: C_3  and  C_9 
ROOT
HETATM    1  C   UNK     0     146.564  97.049 109.947  0.00  0.00     0.013 A 
HETATM    2  N   UNK     0     148.197  98.768 110.806  0.00  0.00    -0.241 NA
HETATM    3  C   UNK     0     147.733  97.364 110.417  0.00  0.00     0.071 A 
HETATM    4  N   UNK     0     144.922  99.151 109.691  0.00  0.00    -0.223 NA
HETATM    5  C   UNK     0     145.266  97.845 109.607  0.00  0.00     0.059 A 
HETATM    6  C   UNK     0     145.820 100.284 110.193  0.00  0.00     0.232 A 
HETATM    7  C   UNK     0     146.580  95.527 109.712  0.00  0.00     0.062 A 
HETATM    8  C   UNK     0     147.343 100.091 110.710  0.00  0.00     0.146 A 
HETATM    9  C   UNK     0     144.029  97.116 109.048  0.00  0.00     0.051 A 
HETATM   10  O   UNK     0     145.227 101.697 110.204  0.00  0.00    -0.168 OA
HETATM   11  C   UNK     0     145.347  94.807 109.155  0.00  0.00     0.018 A 
HETATM   12  C   UNK     0     144.072  95.601 108.823  0.00  0.00     0.040 A 
HETATM   13 Cl   UNK     0     145.381  93.273 108.924  0.00  0.00    -0.091 Cl
ENDROOT
BRANCH   3  14
HETATM   14  C   UNK     0     148.740  96.221 110.598  0.00  0.00    -0.027 A 
HETATM   15  C   UNK     0     148.427  95.062 111.553  0.00  0.00     0.024 A 
HETATM   16  C   UNK     0     149.426  93.917 111.740  0.00  0.00     0.004 A 
HETATM   17  C   UNK     0     150.756  93.937 110.958  0.00  0.00     0.001 A 
HETATM   18  C   UNK     0     151.091  95.091 109.994  0.00  0.00     0.004 A 
HETATM   19  C   UNK     0     150.070  96.241 109.817  0.00  0.00     0.024 A 
ENDBRANCH   3  14
TORSDOF 1
ENDMDL
MODEL 10
REMARK VINA RESULT:      -6.9     22.268     24.322
REMARK  1 active torsions:
REMARK  status: ('A' for Active; 'I' for Inactive)
REMARK    1  A    between atoms: C_3  and  C_9 
ROOT
HETATM    1  C   UNK     0     130.075 131.778 163.876  0.00  0.00     0.013 A 
HETATM    2  N   UNK     0     130.011 129.646 165.222  0.00  0.00    -0.241 NA
HETATM    3  C   UNK     0     130.217 131.145 165.001  0.00  0.00     0.071 A 
HETATM    4  N   UNK     0     129.352 130.185 161.847  0.00  0.00    -0.223 NA
HETATM    5  C   UNK     0     129.681 131.363 162.425  0.00  0.00     0.059 A 
HETATM    6  C   UNK     0     129.278 128.829 162.554  0.00  0.00     0.232 A 
HETATM    7  C   UNK     0     130.390 133.258 164.161  0.00  0.00     0.062 A 
HETATM    8  C   UNK     0     129.587 128.593 164.127  0.00  0.00     0.146 A 
HETATM    9  C   UNK     0     129.612 132.419 161.305  0.00  0.00     0.051 A 
HETATM   10  O   UNK     0     128.882 127.616 161.706  0.00  0.00    -0.168 OA
HETATM   11  C   UNK     0     130.320 134.304 163.043  0.00  0.00     0.018 A 
HETATM   12  C   UNK     0     129.931 133.885 161.616  0.00  0.00     0.040 A 
HETATM   13 Cl   UNK     0     130.642 135.791 163.349  0.00  0.00    -0.091 Cl
ENDROOT
BRANCH   3  14
HETATM   14  C   UNK     0     130.631 131.979 166.221  0.00  0.00    -0.027 A 
HETATM   15  C   UNK     0     129.561 132.568 167.150  0.00  0.00     0.024 A 
HETATM   16  C   UNK     0     129.963 133.402 168.369  0.00  0.00     0.004 A 
HETATM   17  C   UNK     0     131.459 133.647 168.659  0.00  0.00     0.001 A 
HETATM   18  C   UNK     0     132.550 133.065 167.739  0.00  0.00     0.004 A 
HETATM   19  C   UNK     0     132.125 132.224 166.510  0.00  0.00     0.024 A 
ENDBRANCH   3  14
TORSDOF 1
ENDMDL
