MODEL 1
REMARK VINA RESULT:     -10.5      0.000      0.000
REMARK  0 active torsions:
REMARK  status: ('A' for Active; 'I' for Inactive)
REMARK       I    between atoms: N_8  and  C_16 
ROOT
HETATM    1  C   UNK     0     142.127 109.807 166.381  0.00  0.00     0.005 A 
HETATM    2  C   UNK     0     141.420 111.103 165.964  0.00  0.00     0.007 A 
HETATM    3  C   UNK     0     141.596 112.373 166.801  0.00  0.00     0.044 A 
HETATM    4  C   UNK     0     143.007 109.779 167.627  0.00  0.00     0.028 A 
HETATM    5  C   UNK     0     142.477 112.345 168.050  0.00  0.00     0.040 A 
HETATM    6  C   UNK     0     143.187 111.044 168.468  0.00  0.00    -0.008 A 
HETATM    7  C   UNK     0     144.117 110.793 169.683  0.00  0.00     0.024 A 
HETATM    8  N   UNK     0     142.517 113.731 168.745  0.00  0.00    -0.283 N 
HETATM    9  C   UNK     0     144.565 111.783 170.780  0.00  0.00     0.128 A 
HETATM   10  C   UNK     0     144.190 113.274 170.931  0.00  0.00     0.015 A 
HETATM   11  C   UNK     0     143.283 114.142 170.031  0.00  0.00     0.042 A 
HETATM   12  C   UNK     0     143.049 115.626 170.378  0.00  0.00     0.044 A 
HETATM   13  C   UNK     0     143.721 116.243 171.625  0.00  0.00     0.007 A 
HETATM   14  C   UNK     0     144.631 115.365 172.523  0.00  0.00     0.005 A 
HETATM   15  C   UNK     0     144.860 113.885 172.171  0.00  0.00     0.030 A 
HETATM   16  C   UNK     0     141.696 114.835 168.077  0.00  0.00     0.271 C 
HETATM   17  N   UNK     0     140.902 114.535 166.802  0.00  0.00    -0.053 NA
HETATM   18  O   UNK     0     141.667 116.241 168.682  0.00  0.00    -0.154 OA
HETATM   19  O   UNK     0     145.497 111.215 171.854  0.00  0.00    -0.191 OA
ENDROOT
TORSDOF 0
ENDMDL
MODEL 2
REMARK VINA RESULT:      -9.7     24.923     27.035
REMARK  0 active torsions:
REMARK  status: ('A' for Active; 'I' for Inactive)
REMARK       I    between atoms: N_8  and  C_16 
ROOT
HETATM    1  C   UNK     0     154.223 139.996 169.594  0.00  0.00     0.005 A 
HETATM    2  C   UNK     0     152.699 139.958 169.772  0.00  0.00     0.007 A 
HETATM    3  C   UNK     0     151.828 139.219 168.752  0.00  0.00     0.044 A 
HETATM    4  C   UNK     0     154.874 139.299 168.402  0.00  0.00     0.028 A 
HETATM    5  C   UNK     0     152.481 138.521 167.558  0.00  0.00     0.040 A 
HETATM    6  C   UNK     0     154.010 138.560 167.380  0.00  0.00    -0.008 A 
HETATM    7  C   UNK     0     154.872 137.928 166.257  0.00  0.00     0.024 A 
HETATM    8  N   UNK     0     151.422 137.838 166.654  0.00  0.00    -0.283 N 
HETATM    9  C   UNK     0     154.416 137.101 165.034  0.00  0.00     0.128 A 
HETATM   10  C   UNK     0     152.978 136.703 164.635  0.00  0.00     0.015 A 
HETATM   11  C   UNK     0     151.647 137.028 165.350  0.00  0.00     0.042 A 
HETATM   12  C   UNK     0     150.314 136.520 164.763  0.00  0.00     0.044 A 
HETATM   13  C   UNK     0     150.312 135.688 163.462  0.00  0.00     0.007 A 
HETATM   14  C   UNK     0     151.651 135.366 162.749  0.00  0.00     0.005 A 
HETATM   15  C   UNK     0     152.977 135.876 163.341  0.00  0.00     0.030 A 
HETATM   16  C   UNK     0     149.967 137.983 167.107  0.00  0.00     0.271 C 
HETATM   17  N   UNK     0     149.635 138.764 168.381  0.00  0.00    -0.053 NA
HETATM   18  O   UNK     0     148.843 137.346 166.285  0.00  0.00    -0.154 OA
HETATM   19  O   UNK     0     155.528 136.616 164.102  0.00  0.00    -0.191 OA
ENDROOT
TORSDOF 0
ENDMDL
MODEL 3
REMARK VINA RESULT:      -9.7     40.110     42.543
REMARK  0 active torsions:
REMARK  status: ('A' for Active; 'I' for Inactive)
REMARK       I    between atoms: N_8  and  C_16 
ROOT
HETATM    1  C   UNK     0     108.872 142.052 164.845  0.00  0.00     0.005 A 
HETATM    2  C   UNK     0     110.240 141.412 164.570  0.00  0.00     0.007 A 
HETATM    3  C   UNK     0     110.901 140.533 165.635  0.00  0.00     0.044 A 
HETATM    4  C   UNK     0     108.168 141.814 166.178  0.00  0.00     0.028 A 
HETATM    5  C   UNK     0     110.196 140.295 166.971  0.00  0.00     0.040 A 
HETATM    6  C   UNK     0     108.823 140.937 167.246  0.00  0.00    -0.008 A 
HETATM    7  C   UNK     0     107.940 140.831 168.517  0.00  0.00     0.024 A 
HETATM    8  N   UNK     0     111.036 139.380 167.899  0.00  0.00    -0.283 N 
HETATM    9  C   UNK     0     108.213 140.055 169.824  0.00  0.00     0.128 A 
HETATM   10  C   UNK     0     109.443 139.192 170.182  0.00  0.00     0.015 A 
HETATM   11  C   UNK     0     110.697 138.890 169.332  0.00  0.00     0.042 A 
HETATM   12  C   UNK     0     111.814 137.991 169.900  0.00  0.00     0.044 A 
HETATM   13  C   UNK     0     111.677 137.393 171.318  0.00  0.00     0.007 A 
HETATM   14  C   UNK     0     110.415 137.701 172.166  0.00  0.00     0.005 A 
HETATM   15  C   UNK     0     109.305 138.599 171.593  0.00  0.00     0.030 A 
HETATM   16  C   UNK     0     112.372 138.899 167.328  0.00  0.00     0.271 C 
HETATM   17  N   UNK     0     112.802 139.326 165.922  0.00  0.00    -0.053 NA
HETATM   18  O   UNK     0     113.278 137.992 168.163  0.00  0.00    -0.154 OA
HETATM   19  O   UNK     0     107.129 140.155 170.899  0.00  0.00    -0.191 OA
ENDROOT
TORSDOF 0
ENDMDL
MODEL 4
REMARK VINA RESULT:      -9.7     40.169     42.712
REMARK  0 active torsions:
REMARK  status: ('A' for Active; 'I' for Inactive)
REMARK       I    between atoms: N_8  and  C_16 
ROOT
HETATM    1  C   UNK     0     110.305 137.743 172.276  0.00  0.00     0.005 A 
HETATM    2  C   UNK     0     111.565 137.407 171.465  0.00  0.00     0.007 A 
HETATM    3  C   UNK     0     111.737 137.970 170.051  0.00  0.00     0.044 A 
HETATM    4  C   UNK     0     109.222 138.636 171.677  0.00  0.00     0.028 A 
HETATM    5  C   UNK     0     110.651 138.864 169.451  0.00  0.00     0.040 A 
HETATM    6  C   UNK     0     109.388 139.200 170.265  0.00  0.00    -0.008 A 
HETATM    7  C   UNK     0     108.176 140.077 169.857  0.00  0.00     0.024 A 
HETATM    8  N   UNK     0     111.024 139.321 168.017  0.00  0.00    -0.283 N 
HETATM    9  C   UNK     0     107.930 140.834 168.533  0.00  0.00     0.128 A 
HETATM   10  C   UNK     0     108.842 140.898 167.288  0.00  0.00     0.015 A 
HETATM   11  C   UNK     0     110.215 140.229 167.054  0.00  0.00     0.042 A 
HETATM   12  C   UNK     0     110.953 140.435 165.716  0.00  0.00     0.044 A 
HETATM   13  C   UNK     0     110.320 141.309 164.611  0.00  0.00     0.007 A 
HETATM   14  C   UNK     0     108.941 141.977 164.853  0.00  0.00     0.005 A 
HETATM   15  C   UNK     0     108.210 141.768 166.190  0.00  0.00     0.030 A 
HETATM   16  C   UNK     0     112.365 138.811 167.483  0.00  0.00     0.271 C 
HETATM   17  N   UNK     0     113.243 137.908 168.354  0.00  0.00    -0.053 NA
HETATM   18  O   UNK     0     112.829 139.204 166.079  0.00  0.00    -0.154 OA
HETATM   19  O   UNK     0     106.619 141.618 168.444  0.00  0.00    -0.191 OA
ENDROOT
TORSDOF 0
ENDMDL
MODEL 5
REMARK VINA RESULT:      -9.5     39.929     42.487
REMARK  0 active torsions:
REMARK  status: ('A' for Active; 'I' for Inactive)
REMARK       I    between atoms: N_8  and  C_16 
ROOT
HETATM    1  C   UNK     0     108.003 138.856 172.662  0.00  0.00     0.005 A 
HETATM    2  C   UNK     0     109.345 138.112 172.721  0.00  0.00     0.007 A 
HETATM    3  C   UNK     0     110.295 138.153 171.521  0.00  0.00     0.044 A 
HETATM    4  C   UNK     0     107.613 139.637 171.410  0.00  0.00     0.028 A 
HETATM    5  C   UNK     0     109.904 138.935 170.267  0.00  0.00     0.040 A 
HETATM    6  C   UNK     0     108.558 139.681 170.208  0.00  0.00    -0.008 A 
HETATM    7  C   UNK     0     107.967 140.527 169.050  0.00  0.00     0.024 A 
HETATM    8  N   UNK     0     111.004 138.845 169.178  0.00  0.00    -0.283 N 
HETATM    9  C   UNK     0     108.578 140.833 167.665  0.00  0.00     0.128 A 
HETATM   10  C   UNK     0     109.937 140.366 167.098  0.00  0.00     0.015 A 
HETATM   11  C   UNK     0     111.016 139.485 167.765  0.00  0.00     0.042 A 
HETATM   12  C   UNK     0     112.311 139.143 167.000  0.00  0.00     0.044 A 
HETATM   13  C   UNK     0     112.527 139.682 165.569  0.00  0.00     0.007 A 
HETATM   14  C   UNK     0     111.439 140.566 164.905  0.00  0.00     0.005 A 
HETATM   15  C   UNK     0     110.150 140.904 165.674  0.00  0.00     0.030 A 
HETATM   16  C   UNK     0     112.238 138.018 169.546  0.00  0.00     0.271 C 
HETATM   17  N   UNK     0     112.328 137.343 170.917  0.00  0.00    -0.053 NA
HETATM   18  O   UNK     0     113.384 137.865 168.542  0.00  0.00    -0.154 OA
HETATM   19  O   UNK     0     107.731 141.709 166.739  0.00  0.00    -0.191 OA
ENDROOT
TORSDOF 0
ENDMDL
MODEL 6
REMARK VINA RESULT:      -9.5     25.649     26.968
REMARK  0 active torsions:
REMARK  status: ('A' for Active; 'I' for Inactive)
REMARK       I    between atoms: N_8  and  C_16 
ROOT
HETATM    1  C   UNK     0     155.053 136.550 162.968  0.00  0.00     0.005 A 
HETATM    2  C   UNK     0     153.567 136.248 162.725  0.00  0.00     0.007 A 
HETATM    3  C   UNK     0     152.525 136.646 163.774  0.00  0.00     0.044 A 
HETATM    4  C   UNK     0     155.495 137.245 164.253  0.00  0.00     0.028 A 
HETATM    5  C   UNK     0     152.968 137.342 165.061  0.00  0.00     0.040 A 
HETATM    6  C   UNK     0     154.459 137.645 165.304  0.00  0.00    -0.008 A 
HETATM    7  C   UNK     0     155.123 138.335 166.524  0.00  0.00     0.024 A 
HETATM    8  N   UNK     0     151.759 137.655 165.980  0.00  0.00    -0.283 N 
HETATM    9  C   UNK     0     154.458 138.893 167.801  0.00  0.00     0.128 A 
HETATM   10  C   UNK     0     152.958 138.896 168.173  0.00  0.00     0.015 A 
HETATM   11  C   UNK     0     151.758 138.348 167.369  0.00  0.00     0.042 A 
HETATM   12  C   UNK     0     150.331 138.462 167.943  0.00  0.00     0.044 A 
HETATM   13  C   UNK     0     150.104 139.122 169.320  0.00  0.00     0.007 A 
HETATM   14  C   UNK     0     151.313 139.670 170.122  0.00  0.00     0.005 A 
HETATM   15  C   UNK     0     152.734 139.553 169.543  0.00  0.00     0.030 A 
HETATM   16  C   UNK     0     150.390 137.223 165.450  0.00  0.00     0.271 C 
HETATM   17  N   UNK     0     150.280 136.530 164.089  0.00  0.00    -0.053 NA
HETATM   18  O   UNK     0     149.131 137.485 166.279  0.00  0.00    -0.154 OA
HETATM   19  O   UNK     0     155.403 139.520 168.828  0.00  0.00    -0.191 OA
ENDROOT
TORSDOF 0
ENDMDL
MODEL 7
REMARK VINA RESULT:      -9.4     41.001     43.551
REMARK  0 active torsions:
REMARK  status: ('A' for Active; 'I' for Inactive)
REMARK       I    between atoms: N_8  and  C_16 
ROOT
HETATM    1  C   UNK     0     130.371 156.835 169.781  0.00  0.00     0.005 A 
HETATM    2  C   UNK     0     130.032 155.351 169.979  0.00  0.00     0.007 A 
HETATM    3  C   UNK     0     130.323 154.345 168.863  0.00  0.00     0.044 A 
HETATM    4  C   UNK     0     130.998 157.311 168.473  0.00  0.00     0.028 A 
HETATM    5  C   UNK     0     130.952 154.822 167.553  0.00  0.00     0.040 A 
HETATM    6  C   UNK     0     131.292 156.311 167.355  0.00  0.00    -0.008 A 
HETATM    7  C   UNK     0     131.926 157.005 166.121  0.00  0.00     0.024 A 
HETATM    8  N   UNK     0     131.161 153.645 166.565  0.00  0.00    -0.283 N 
HETATM    9  C   UNK     0     132.376 156.380 164.783  0.00  0.00     0.128 A 
HETATM   10  C   UNK     0     132.301 154.899 164.349  0.00  0.00     0.015 A 
HETATM   11  C   UNK     0     131.763 153.683 165.135  0.00  0.00     0.042 A 
HETATM   12  C   UNK     0     131.788 152.280 164.495  0.00  0.00     0.044 A 
HETATM   13  C   UNK     0     132.351 152.093 163.069  0.00  0.00     0.007 A 
HETATM   14  C   UNK     0     132.889 153.319 162.285  0.00  0.00     0.005 A 
HETATM   15  C   UNK     0     132.861 154.715 162.930  0.00  0.00     0.030 A 
HETATM   16  C   UNK     0     130.715 152.269 167.064  0.00  0.00     0.271 C 
HETATM   17  N   UNK     0     130.107 152.121 168.461  0.00  0.00    -0.053 NA
HETATM   18  O   UNK     0     130.877 151.040 166.167  0.00  0.00    -0.154 OA
HETATM   19  O   UNK     0     132.970 157.349 163.758  0.00  0.00    -0.191 OA
ENDROOT
TORSDOF 0
ENDMDL
MODEL 8
REMARK VINA RESULT:      -8.1     64.548     66.594
REMARK  0 active torsions:
REMARK  status: ('A' for Active; 'I' for Inactive)
REMARK       I    between atoms: N_8  and  C_16 
ROOT
HETATM    1  C   UNK     0     146.872 148.248 118.180  0.00  0.00     0.005 A 
HETATM    2  C   UNK     0     147.661 147.572 117.050  0.00  0.00     0.007 A 
HETATM    3  C   UNK     0     148.160 148.401 115.863  0.00  0.00     0.044 A 
HETATM    4  C   UNK     0     146.582 149.746 118.124  0.00  0.00     0.028 A 
HETATM    5  C   UNK     0     147.869 149.901 115.807  0.00  0.00     0.040 A 
HETATM    6  C   UNK     0     147.077 150.579 116.941  0.00  0.00    -0.008 A 
HETATM    7  C   UNK     0     146.674 152.070 117.086  0.00  0.00     0.024 A 
HETATM    8  N   UNK     0     148.461 150.545 114.527  0.00  0.00    -0.283 N 
HETATM    9  C   UNK     0     146.965 153.249 116.132  0.00  0.00     0.128 A 
HETATM   10  C   UNK     0     147.734 153.225 114.792  0.00  0.00     0.015 A 
HETATM   11  C   UNK     0     148.399 152.028 114.076  0.00  0.00     0.042 A 
HETATM   12  C   UNK     0     149.120 152.242 112.730  0.00  0.00     0.044 A 
HETATM   13  C   UNK     0     149.177 153.650 112.100  0.00  0.00     0.007 A 
HETATM   14  C   UNK     0     148.507 154.847 112.824  0.00  0.00     0.005 A 
HETATM   15  C   UNK     0     147.789 154.627 114.167  0.00  0.00     0.030 A 
HETATM   16  C   UNK     0     149.202 149.593 113.585  0.00  0.00     0.271 C 
HETATM   17  N   UNK     0     149.322 148.107 113.935  0.00  0.00    -0.053 NA
HETATM   18  O   UNK     0     149.824 150.126 112.292  0.00  0.00    -0.154 OA
HETATM   19  O   UNK     0     146.423 154.612 116.569  0.00  0.00    -0.191 OA
ENDROOT
TORSDOF 0
ENDMDL
MODEL 9
REMARK VINA RESULT:      -7.9     64.460     66.502
REMARK  0 active torsions:
REMARK  status: ('A' for Active; 'I' for Inactive)
REMARK       I    between atoms: N_8  and  C_16 
ROOT
HETATM    1  C   UNK     0     148.852 154.632 112.597  0.00  0.00     0.005 A 
HETATM    2  C   UNK     0     148.855 153.359 111.738  0.00  0.00     0.007 A 
HETATM    3  C   UNK     0     148.554 152.003 112.382  0.00  0.00     0.044 A 
HETATM    4  C   UNK     0     148.551 154.549 114.090  0.00  0.00     0.028 A 
HETATM    5  C   UNK     0     148.251 151.920 113.878  0.00  0.00     0.040 A 
HETATM    6  C   UNK     0     148.249 153.198 114.739  0.00  0.00    -0.008 A 
HETATM    7  C   UNK     0     147.972 153.344 116.258  0.00  0.00     0.024 A 
HETATM    8  N   UNK     0     147.976 150.460 114.320  0.00  0.00    -0.283 N 
HETATM    9  C   UNK     0     147.629 152.247 117.289  0.00  0.00     0.128 A 
HETATM   10  C   UNK     0     147.479 150.728 117.052  0.00  0.00     0.015 A 
HETATM   11  C   UNK     0     147.631 149.931 115.737  0.00  0.00     0.042 A 
HETATM   12  C   UNK     0     147.433 148.401 115.737  0.00  0.00     0.044 A 
HETATM   13  C   UNK     0     147.083 147.668 117.051  0.00  0.00     0.007 A 
HETATM   14  C   UNK     0     146.931 148.475 118.367  0.00  0.00     0.005 A 
HETATM   15  C   UNK     0     147.130 150.000 118.360  0.00  0.00     0.030 A 
HETATM   16  C   UNK     0     148.055 149.404 113.215  0.00  0.00     0.271 C 
HETATM   17  N   UNK     0     148.388 149.820 111.780  0.00  0.00    -0.053 NA
HETATM   18  O   UNK     0     147.800 147.931 113.544  0.00  0.00    -0.154 OA
HETATM   19  O   UNK     0     147.411 152.725 118.726  0.00  0.00    -0.191 OA
ENDROOT
TORSDOF 0
ENDMDL
MODEL 10
REMARK VINA RESULT:      -7.4     41.570     44.051
REMARK  0 active torsions:
REMARK  status: ('A' for Active; 'I' for Inactive)
REMARK       I    between atoms: N_8  and  C_16 
ROOT
HETATM    1  C   UNK     0     106.851 144.062 165.331  0.00  0.00     0.005 A 
HETATM    2  C   UNK     0     106.193 143.590 166.635  0.00  0.00     0.007 A 
HETATM    3  C   UNK     0     106.873 142.516 167.489  0.00  0.00     0.044 A 
HETATM    4  C   UNK     0     108.181 143.463 164.882  0.00  0.00     0.028 A 
HETATM    5  C   UNK     0     108.205 141.916 167.039  0.00  0.00     0.040 A 
HETATM    6  C   UNK     0     108.865 142.390 165.730  0.00  0.00    -0.008 A 
HETATM    7  C   UNK     0     110.198 141.923 165.091  0.00  0.00     0.024 A 
HETATM    8  N   UNK     0     108.714 140.851 168.044  0.00  0.00    -0.283 N 
HETATM    9  C   UNK     0     111.201 140.866 165.605  0.00  0.00     0.128 A 
HETATM   10  C   UNK     0     111.113 140.014 166.891  0.00  0.00     0.015 A 
HETATM   11  C   UNK     0     110.012 140.004 167.975  0.00  0.00     0.042 A 
HETATM   12  C   UNK     0     110.136 139.058 169.187  0.00  0.00     0.044 A 
HETATM   13  C   UNK     0     111.358 138.123 169.316  0.00  0.00     0.007 A 
HETATM   14  C   UNK     0     112.459 138.139 168.223  0.00  0.00     0.005 A 
HETATM   15  C   UNK     0     112.330 139.085 167.017  0.00  0.00     0.030 A 
HETATM   16  C   UNK     0     107.820 140.603 169.261  0.00  0.00     0.271 C 
HETATM   17  N   UNK     0     106.516 141.387 169.426  0.00  0.00    -0.053 NA
HETATM   18  O   UNK     0     108.231 139.572 170.315  0.00  0.00    -0.154 OA
HETATM   19  O   UNK     0     112.435 140.634 164.731  0.00  0.00    -0.191 OA
ENDROOT
TORSDOF 0
ENDMDL
