MODEL 1
REMARK VINA RESULT:      -6.5      0.000      0.000
REMARK  4 active torsions:
REMARK  status: ('A' for Active; 'I' for Inactive)
REMARK    1  A    between atoms: C_2  and  C_3 
REMARK    2  A    between atoms: C_3  and  C_4 
REMARK    3  A    between atoms: C_4  and  C_6 
REMARK    4  A    between atoms: C_6  and  C_7 
ROOT
HETATM    1  C   UNK     0     111.731 138.126 168.934  0.00  0.00     0.032 A 
HETATM    2  C   UNK     0     112.478 137.463 167.762  0.00  0.00     0.155 A 
HETATM    3  N   UNK     0     112.145 137.861 166.313  0.00  0.00    -0.156 NA
HETATM    4  C   UNK     0     110.652 139.188 168.657  0.00  0.00     0.069 A 
HETATM    5  C   UNK     0     110.318 139.587 167.207  0.00  0.00     0.295 A 
HETATM    6  O   UNK     0     109.238 140.649 166.930  0.00  0.00    -0.188 OA
HETATM    7  O   UNK     0     111.065 138.924 166.035  0.00  0.00    -0.210 OA
ENDROOT
BRANCH   1   8
HETATM    8  C   UNK     0     112.065 137.727 170.384  0.00  0.00     0.002 C 
BRANCH   8   9
HETATM    9  C   UNK     0     110.956 137.193 171.310  0.00  0.00     0.000 C 
HETATM   10  C   UNK     0     109.995 136.099 170.809  0.00  0.00     0.000 C 
BRANCH   9  11
HETATM   11  C   UNK     0     110.810 137.752 172.737  0.00  0.00     0.000 C 
BRANCH  11  12
HETATM   12  C   UNK     0     109.507 138.458 173.158  0.00  0.00     0.000 C 
HETATM   13  C   UNK     0     108.616 139.127 172.095  0.00  0.00     0.000 C 
ENDBRANCH  11  12
ENDBRANCH   9  11
ENDBRANCH   8   9
ENDBRANCH   1   8
TORSDOF 4
ENDMDL
MODEL 2
REMARK VINA RESULT:      -6.4     39.605     41.363
REMARK  4 active torsions:
REMARK  status: ('A' for Active; 'I' for Inactive)
REMARK    1  A    between atoms: C_2  and  C_3 
REMARK    2  A    between atoms: C_3  and  C_4 
REMARK    3  A    between atoms: C_4  and  C_6 
REMARK    4  A    between atoms: C_6  and  C_7 
ROOT
HETATM    1  C   UNK     0     152.097 138.065 166.388  0.00  0.00     0.032 A 
HETATM    2  C   UNK     0     153.611 138.219 166.620  0.00  0.00     0.155 A 
HETATM    3  N   UNK     0     154.133 138.766 167.961  0.00  0.00    -0.156 NA
HETATM    4  C   UNK     0     151.104 138.459 167.497  0.00  0.00     0.069 A 
HETATM    5  C   UNK     0     151.626 139.006 168.839  0.00  0.00     0.295 A 
HETATM    6  O   UNK     0     150.633 139.400 169.949  0.00  0.00    -0.188 OA
HETATM    7  O   UNK     0     153.140 139.160 169.071  0.00  0.00    -0.210 OA
ENDROOT
BRANCH   1   8
HETATM    8  C   UNK     0     151.575 137.518 165.046  0.00  0.00     0.002 C 
BRANCH   8   9
HETATM    9  C   UNK     0     150.341 136.597 165.017  0.00  0.00     0.000 C 
HETATM   10  C   UNK     0     149.122 136.915 165.904  0.00  0.00     0.000 C 
BRANCH   9  11
HETATM   11  C   UNK     0     150.325 135.359 164.102  0.00  0.00     0.000 C 
BRANCH  11  12
HETATM   12  C   UNK     0     151.412 135.185 163.025  0.00  0.00     0.000 C 
HETATM   13  C   UNK     0     152.776 134.574 163.398  0.00  0.00     0.000 C 
ENDBRANCH  11  12
ENDBRANCH   9  11
ENDBRANCH   8   9
ENDBRANCH   1   8
TORSDOF 4
ENDMDL
MODEL 3
REMARK VINA RESULT:      -6.3     53.038     55.118
REMARK  4 active torsions:
REMARK  status: ('A' for Active; 'I' for Inactive)
REMARK    1  A    between atoms: C_2  and  C_3 
REMARK    2  A    between atoms: C_3  and  C_4 
REMARK    3  A    between atoms: C_4  and  C_6 
REMARK    4  A    between atoms: C_6  and  C_7 
ROOT
HETATM    1  C   UNK     0     112.419 152.535 115.944  0.00  0.00     0.032 A 
HETATM    2  C   UNK     0     110.941 152.110 116.007  0.00  0.00     0.155 A 
HETATM    3  N   UNK     0     110.031 152.301 114.780  0.00  0.00    -0.156 NA
HETATM    4  C   UNK     0     112.988 153.152 114.653  0.00  0.00     0.069 A 
HETATM    5  C   UNK     0     112.078 153.343 113.425  0.00  0.00     0.295 A 
HETATM    6  O   UNK     0     112.647 153.960 112.133  0.00  0.00    -0.188 OA
HETATM    7  O   UNK     0     110.600 152.917 113.488  0.00  0.00    -0.210 OA
ENDROOT
BRANCH   1   8
HETATM    8  C   UNK     0     113.329 152.344 117.172  0.00  0.00     0.002 C 
BRANCH   8   9
HETATM    9  C   UNK     0     113.044 153.122 118.470  0.00  0.00     0.000 C 
HETATM   10  C   UNK     0     113.551 152.580 119.819  0.00  0.00     0.000 C 
BRANCH   9  11
HETATM   11  C   UNK     0     112.253 154.442 118.419  0.00  0.00     0.000 C 
BRANCH  11  12
HETATM   12  C   UNK     0     110.928 154.576 119.191  0.00  0.00     0.000 C 
HETATM   13  C   UNK     0     110.054 153.333 119.442  0.00  0.00     0.000 C 
ENDBRANCH  11  12
ENDBRANCH   9  11
ENDBRANCH   8   9
ENDBRANCH   1   8
TORSDOF 4
ENDMDL
MODEL 4
REMARK VINA RESULT:      -6.2     25.084     26.366
REMARK  4 active torsions:
REMARK  status: ('A' for Active; 'I' for Inactive)
REMARK    1  A    between atoms: C_2  and  C_3 
REMARK    2  A    between atoms: C_3  and  C_4 
REMARK    3  A    between atoms: C_4  and  C_6 
REMARK    4  A    between atoms: C_6  and  C_7 
ROOT
HETATM    1  C   UNK     0     130.732 153.028 167.179  0.00  0.00     0.032 A 
HETATM    2  C   UNK     0     130.258 152.367 168.486  0.00  0.00     0.155 A 
HETATM    3  N   UNK     0     130.050 153.221 169.750  0.00  0.00    -0.156 NA
HETATM    4  C   UNK     0     130.997 154.544 167.134  0.00  0.00     0.069 A 
HETATM    5  C   UNK     0     130.789 155.399 168.398  0.00  0.00     0.295 A 
HETATM    6  O   UNK     0     131.054 156.916 168.355  0.00  0.00    -0.188 OA
HETATM    7  O   UNK     0     130.315 154.738 169.706  0.00  0.00    -0.210 OA
ENDROOT
BRANCH   1   8
HETATM    8  C   UNK     0     130.940 152.173 165.915  0.00  0.00     0.002 C 
BRANCH   8   9
HETATM    9  C   UNK     0     131.155 152.854 164.550  0.00  0.00     0.000 C 
HETATM   10  C   UNK     0     130.050 153.744 163.951  0.00  0.00     0.000 C 
BRANCH   9  11
HETATM   11  C   UNK     0     132.475 152.646 163.786  0.00  0.00     0.000 C 
BRANCH  11  12
HETATM   12  C   UNK     0     133.098 153.810 162.993  0.00  0.00     0.000 C 
HETATM   13  C   UNK     0     133.267 153.699 161.466  0.00  0.00     0.000 C 
ENDBRANCH  11  12
ENDBRANCH   9  11
ENDBRANCH   8   9
ENDBRANCH   1   8
TORSDOF 4
ENDMDL
MODEL 5
REMARK VINA RESULT:      -6.1     64.645     66.995
REMARK  4 active torsions:
REMARK  status: ('A' for Active; 'I' for Inactive)
REMARK    1  A    between atoms: C_2  and  C_3 
REMARK    2  A    between atoms: C_3  and  C_4 
REMARK    3  A    between atoms: C_4  and  C_6 
REMARK    4  A    between atoms: C_6  and  C_7 
ROOT
HETATM    1  C   UNK     0     148.572 148.559 114.219  0.00  0.00     0.032 A 
HETATM    2  C   UNK     0     149.682 149.599 114.463  0.00  0.00     0.155 A 
HETATM    3  N   UNK     0     150.364 150.291 113.269  0.00  0.00    -0.156 NA
HETATM    4  C   UNK     0     148.145 148.212 112.781  0.00  0.00     0.069 A 
HETATM    5  C   UNK     0     148.827 148.904 111.587  0.00  0.00     0.295 A 
HETATM    6  O   UNK     0     148.400 148.557 110.148  0.00  0.00    -0.188 OA
HETATM    7  O   UNK     0     149.937 149.944 111.830  0.00  0.00    -0.210 OA
ENDROOT
BRANCH   1   8
HETATM    8  C   UNK     0     147.889 147.867 115.413  0.00  0.00     0.002 C 
BRANCH   8   9
HETATM    9  C   UNK     0     147.347 148.708 116.584  0.00  0.00     0.000 C 
HETATM   10  C   UNK     0     146.906 150.164 116.347  0.00  0.00     0.000 C 
BRANCH   9  11
HETATM   11  C   UNK     0     147.246 148.092 117.992  0.00  0.00     0.000 C 
BRANCH  11  12
HETATM   12  C   UNK     0     145.914 148.149 118.763  0.00  0.00     0.000 C 
HETATM   13  C   UNK     0     144.962 146.938 118.746  0.00  0.00     0.000 C 
ENDBRANCH  11  12
ENDBRANCH   9  11
ENDBRANCH   8   9
ENDBRANCH   1   8
TORSDOF 4
ENDMDL
MODEL 6
REMARK VINA RESULT:      -6.0      3.285      5.804
REMARK  4 active torsions:
REMARK  status: ('A' for Active; 'I' for Inactive)
REMARK    1  A    between atoms: C_2  and  C_3 
REMARK    2  A    between atoms: C_3  and  C_4 
REMARK    3  A    between atoms: C_4  and  C_6 
REMARK    4  A    between atoms: C_6  and  C_7 
ROOT
HETATM    1  C   UNK     0     110.495 138.755 168.348  0.00  0.00     0.032 A 
HETATM    2  C   UNK     0     109.210 139.464 168.813  0.00  0.00     0.155 A 
HETATM    3  N   UNK     0     108.869 139.535 170.312  0.00  0.00    -0.156 NA
HETATM    4  C   UNK     0     111.439 138.116 169.382  0.00  0.00     0.069 A 
HETATM    5  C   UNK     0     111.098 138.187 170.883  0.00  0.00     0.295 A 
HETATM    6  O   UNK     0     112.043 137.548 171.918  0.00  0.00    -0.188 OA
HETATM    7  O   UNK     0     109.813 138.896 171.348  0.00  0.00    -0.210 OA
ENDROOT
BRANCH   1   8
HETATM    8  C   UNK     0     110.836 138.684 166.847  0.00  0.00     0.002 C 
BRANCH   8   9
HETATM    9  C   UNK     0     111.361 139.934 166.117  0.00  0.00     0.000 C 
HETATM   10  C   UNK     0     112.878 140.179 166.004  0.00  0.00     0.000 C 
BRANCH   9  11
HETATM   11  C   UNK     0     110.371 140.939 165.500  0.00  0.00     0.000 C 
BRANCH  11  12
HETATM   12  C   UNK     0     110.768 142.419 165.352  0.00  0.00     0.000 C 
HETATM   13  C   UNK     0     109.769 143.527 165.733  0.00  0.00     0.000 C 
ENDBRANCH  11  12
ENDBRANCH   9  11
ENDBRANCH   8   9
ENDBRANCH   1   8
TORSDOF 4
ENDMDL
MODEL 7
REMARK VINA RESULT:      -5.8     65.361     67.405
REMARK  4 active torsions:
REMARK  status: ('A' for Active; 'I' for Inactive)
REMARK    1  A    between atoms: C_2  and  C_3 
REMARK    2  A    between atoms: C_3  and  C_4 
REMARK    3  A    between atoms: C_4  and  C_6 
REMARK    4  A    between atoms: C_6  and  C_7 
ROOT
HETATM    1  C   UNK     0     147.514 149.976 113.607  0.00  0.00     0.032 A 
HETATM    2  C   UNK     0     148.782 149.259 113.110  0.00  0.00     0.155 A 
HETATM    3  N   UNK     0     149.339 148.051 113.887  0.00  0.00    -0.156 NA
HETATM    4  C   UNK     0     146.801 149.487 114.881  0.00  0.00     0.069 A 
HETATM    5  C   UNK     0     147.357 148.279 115.658  0.00  0.00     0.295 A 
HETATM    6  O   UNK     0     146.645 147.789 116.933  0.00  0.00    -0.188 OA
HETATM    7  O   UNK     0     148.626 147.561 115.161  0.00  0.00    -0.210 OA
ENDROOT
BRANCH   1   8
HETATM    8  C   UNK     0     146.958 151.184 112.830  0.00  0.00     0.002 C 
BRANCH   8   9
HETATM    9  C   UNK     0     147.526 152.593 113.085  0.00  0.00     0.000 C 
HETATM   10  C   UNK     0     148.847 153.022 112.421  0.00  0.00     0.000 C 
BRANCH   9  11
HETATM   11  C   UNK     0     146.772 153.571 114.005  0.00  0.00     0.000 C 
BRANCH  11  12
HETATM   12  C   UNK     0     146.691 153.297 115.519  0.00  0.00     0.000 C 
HETATM   13  C   UNK     0     145.414 152.686 116.124  0.00  0.00     0.000 C 
ENDBRANCH  11  12
ENDBRANCH   9  11
ENDBRANCH   8   9
ENDBRANCH   1   8
TORSDOF 4
ENDMDL
MODEL 8
REMARK VINA RESULT:      -5.7     66.489     67.924
REMARK  4 active torsions:
REMARK  status: ('A' for Active; 'I' for Inactive)
REMARK    1  A    between atoms: C_2  and  C_3 
REMARK    2  A    between atoms: C_3  and  C_4 
REMARK    3  A    between atoms: C_4  and  C_6 
REMARK    4  A    between atoms: C_6  and  C_7 
ROOT
HETATM    1  C   UNK     0     147.979 150.004 114.301  0.00  0.00     0.032 A 
HETATM    2  C   UNK     0     149.482 150.312 114.429  0.00  0.00     0.155 A 
HETATM    3  N   UNK     0     150.400 150.191 113.199  0.00  0.00    -0.156 NA
HETATM    4  C   UNK     0     147.393 149.575 112.944  0.00  0.00     0.069 A 
HETATM    5  C   UNK     0     148.311 149.454 111.713  0.00  0.00     0.295 A 
HETATM    6  O   UNK     0     147.725 149.025 110.354  0.00  0.00    -0.188 OA
HETATM    7  O   UNK     0     149.814 149.762 111.840  0.00  0.00    -0.210 OA
ENDROOT
BRANCH   1   8
HETATM    8  C   UNK     0     147.061 150.125 115.532  0.00  0.00     0.002 C 
BRANCH   8   9
HETATM    9  C   UNK     0     146.818 151.501 116.180  0.00  0.00     0.000 C 
HETATM   10  C   UNK     0     147.712 151.974 117.342  0.00  0.00     0.000 C 
BRANCH   9  11
HETATM   11  C   UNK     0     145.682 152.404 115.666  0.00  0.00     0.000 C 
BRANCH  11  12
HETATM   12  C   UNK     0     145.794 153.069 114.280  0.00  0.00     0.000 C 
HETATM   13  C   UNK     0     147.164 153.548 113.764  0.00  0.00     0.000 C 
ENDBRANCH  11  12
ENDBRANCH   9  11
ENDBRANCH   8   9
ENDBRANCH   1   8
TORSDOF 4
ENDMDL
MODEL 9
REMARK VINA RESULT:      -5.7     44.109     45.344
REMARK  4 active torsions:
REMARK  status: ('A' for Active; 'I' for Inactive)
REMARK    1  A    between atoms: C_2  and  C_3 
REMARK    2  A    between atoms: C_3  and  C_4 
REMARK    3  A    between atoms: C_4  and  C_6 
REMARK    4  A    between atoms: C_6  and  C_7 
ROOT
HETATM    1  C   UNK     0     121.096 152.776 127.807  0.00  0.00     0.032 A 
HETATM    2  C   UNK     0     121.283 153.168 126.330  0.00  0.00     0.155 A 
HETATM    3  N   UNK     0     121.085 154.629 125.889  0.00  0.00    -0.156 NA
HETATM    4  C   UNK     0     120.710 153.846 128.844  0.00  0.00     0.069 A 
HETATM    5  C   UNK     0     120.511 155.309 128.404  0.00  0.00     0.295 A 
HETATM    6  O   UNK     0     120.125 156.380 129.441  0.00  0.00    -0.188 OA
HETATM    7  O   UNK     0     120.699 155.700 126.926  0.00  0.00    -0.210 OA
ENDROOT
BRANCH   1   8
HETATM    8  C   UNK     0     121.295 151.314 128.247  0.00  0.00     0.002 C 
BRANCH   8   9
HETATM    9  C   UNK     0     122.716 150.761 128.464  0.00  0.00     0.000 C 
HETATM   10  C   UNK     0     123.388 149.912 127.367  0.00  0.00     0.000 C 
BRANCH   9  11
HETATM   11  C   UNK     0     123.466 151.056 129.776  0.00  0.00     0.000 C 
BRANCH  11  12
HETATM   12  C   UNK     0     124.286 152.352 129.919  0.00  0.00     0.000 C 
HETATM   13  C   UNK     0     124.703 153.142 128.665  0.00  0.00     0.000 C 
ENDBRANCH  11  12
ENDBRANCH   9  11
ENDBRANCH   8   9
ENDBRANCH   1   8
TORSDOF 4
ENDMDL
MODEL 10
REMARK VINA RESULT:      -5.6      2.176      3.350
REMARK  4 active torsions:
REMARK  status: ('A' for Active; 'I' for Inactive)
REMARK    1  A    between atoms: C_2  and  C_3 
REMARK    2  A    between atoms: C_3  and  C_4 
REMARK    3  A    between atoms: C_4  and  C_6 
REMARK    4  A    between atoms: C_6  and  C_7 
ROOT
HETATM    1  C   UNK     0     110.880 138.865 166.058  0.00  0.00     0.032 A 
HETATM    2  C   UNK     0     109.861 138.525 164.953  0.00  0.00     0.155 A 
HETATM    3  N   UNK     0     109.343 139.632 164.017  0.00  0.00    -0.156 NA
HETATM    4  C   UNK     0     111.380 140.311 166.225  0.00  0.00     0.069 A 
HETATM    5  C   UNK     0     110.862 141.419 165.288  0.00  0.00     0.295 A 
HETATM    6  O   UNK     0     111.362 142.866 165.455  0.00  0.00    -0.188 OA
HETATM    7  O   UNK     0     109.844 141.079 164.184  0.00  0.00    -0.210 OA
ENDROOT
BRANCH   1   8
HETATM    8  C   UNK     0     111.398 137.758 166.995  0.00  0.00     0.002 C 
BRANCH   8   9
HETATM    9  C   UNK     0     111.922 138.119 168.397  0.00  0.00     0.000 C 
HETATM   10  C   UNK     0     113.431 138.044 168.698  0.00  0.00     0.000 C 
BRANCH   9  11
HETATM   11  C   UNK     0     110.938 138.553 169.499  0.00  0.00     0.000 C 
BRANCH  11  12
HETATM   12  C   UNK     0     111.127 138.050 170.942  0.00  0.00     0.000 C 
HETATM   13  C   UNK     0     110.122 137.053 171.549  0.00  0.00     0.000 C 
ENDBRANCH  11  12
ENDBRANCH   9  11
ENDBRANCH   8   9
ENDBRANCH   1   8
TORSDOF 4
ENDMDL
