MODEL 1
REMARK VINA RESULT:     -11.4      0.000      0.000
REMARK  0 active torsions:
REMARK  status: ('A' for Active; 'I' for Inactive)
ROOT
HETATM    1  O   UNK     0     145.665 111.781 172.165  0.00  0.00    -0.304 OA
HETATM    2  O   UNK     0     143.805 109.042 167.873  0.00  0.00    -0.152 OA
HETATM    3  N   UNK     0     143.479 111.589 168.840  0.00  0.00     0.418 N 
HETATM    4  N   UNK     0     144.955 110.065 170.145  0.00  0.00     0.440 N 
HETATM    5  C   UNK     0     144.007 112.368 170.059  0.00  0.00     0.326 A 
HETATM    6  C   UNK     0     143.219 113.611 169.606  0.00  0.00    -0.009 A 
HETATM    7  C   UNK     0     144.266 113.492 171.079  0.00  0.00     0.031 A 
HETATM    8  C   UNK     0     144.919 111.425 170.865  0.00  0.00     0.424 A 
HETATM    9  C   UNK     0     144.064 110.166 168.893  0.00  0.00     0.663 A 
HETATM   10  C   UNK     0     142.955 115.064 170.044  0.00  0.00    -0.032 A 
HETATM   11  C   UNK     0     145.186 113.238 172.287  0.00  0.00     0.072 A 
HETATM   12  C   UNK     0     142.562 113.061 168.327  0.00  0.00     0.024 A 
HETATM   13  C   UNK     0     143.605 114.870 170.890  0.00  0.00    -0.027 A 
HETATM   14  C   UNK     0     145.445 114.363 173.307  0.00  0.00     0.051 A 
HETATM   15  C   UNK     0     142.034 115.966 169.202  0.00  0.00     0.025 A 
HETATM   16  C   UNK     0     141.640 113.963 167.485  0.00  0.00     0.005 A 
HETATM   17  C   UNK     0     143.865 115.994 171.910  0.00  0.00     0.026 A 
HETATM   18  C   UNK     0     144.784 115.741 173.118  0.00  0.00     0.011 A 
HETATM   19  C   UNK     0     141.377 115.415 167.922  0.00  0.00     0.005 A 
ENDROOT
TORSDOF 0
ENDMDL
MODEL 2
REMARK VINA RESULT:     -11.4      1.145      4.050
REMARK  0 active torsions:
REMARK  status: ('A' for Active; 'I' for Inactive)
ROOT
HETATM    1  O   UNK     0     142.833 111.708 167.800  0.00  0.00    -0.304 OA
HETATM    2  O   UNK     0     146.036 109.096 171.307  0.00  0.00    -0.152 OA
HETATM    3  N   UNK     0     144.992 111.628 171.148  0.00  0.00     0.418 N 
HETATM    4  N   UNK     0     144.412 110.048 169.311  0.00  0.00     0.440 N 
HETATM    5  C   UNK     0     144.082 112.371 170.152  0.00  0.00     0.326 A 
HETATM    6  C   UNK     0     144.164 113.638 171.023  0.00  0.00    -0.009 A 
HETATM    7  C   UNK     0     143.242 113.468 169.473  0.00  0.00     0.031 A 
HETATM    8  C   UNK     0     143.724 111.394 169.017  0.00  0.00     0.424 A 
HETATM    9  C   UNK     0     145.196 110.193 170.628  0.00  0.00     0.663 A 
HETATM   10  C   UNK     0     143.641 115.086 171.049  0.00  0.00    -0.032 A 
HETATM   11  C   UNK     0     142.511 113.171 168.151  0.00  0.00     0.072 A 
HETATM   12  C   UNK     0     145.074 113.128 172.155  0.00  0.00     0.024 A 
HETATM   13  C   UNK     0     143.132 114.862 170.118  0.00  0.00    -0.027 A 
HETATM   14  C   UNK     0     141.671 114.269 167.473  0.00  0.00     0.051 A 
HETATM   15  C   UNK     0     144.029 116.024 172.207  0.00  0.00     0.025 A 
HETATM   16  C   UNK     0     145.462 114.065 173.313  0.00  0.00     0.005 A 
HETATM   17  C   UNK     0     142.292 115.960 169.439  0.00  0.00     0.026 A 
HETATM   18  C   UNK     0     141.561 115.664 168.117  0.00  0.00     0.011 A 
HETATM   19  C   UNK     0     144.939 115.513 173.340  0.00  0.00     0.005 A 
ENDROOT
TORSDOF 0
ENDMDL
MODEL 3
REMARK VINA RESULT:     -11.1     25.420     27.161
REMARK  0 active torsions:
REMARK  status: ('A' for Active; 'I' for Inactive)
ROOT
HETATM    1  O   UNK     0     153.284 136.861 164.440  0.00  0.00    -0.304 OA
HETATM    2  O   UNK     0     157.360 138.984 167.315  0.00  0.00    -0.152 OA
HETATM    3  N   UNK     0     154.638 138.833 167.626  0.00  0.00     0.418 N 
HETATM    4  N   UNK     0     155.602 137.787 165.580  0.00  0.00     0.440 N 
HETATM    5  C   UNK     0     153.480 138.230 166.810  0.00  0.00     0.326 A 
HETATM    6  C   UNK     0     152.478 138.714 167.874  0.00  0.00    -0.009 A 
HETATM    7  C   UNK     0     152.069 137.806 166.362  0.00  0.00     0.031 A 
HETATM    8  C   UNK     0     154.076 137.584 165.546  0.00  0.00     0.424 A 
HETATM    9  C   UNK     0     155.949 138.559 166.867  0.00  0.00     0.663 A 
HETATM   10  C   UNK     0     150.965 138.696 168.165  0.00  0.00    -0.032 A 
HETATM   11  C   UNK     0     151.879 137.034 165.042  0.00  0.00     0.072 A 
HETATM   12  C   UNK     0     153.443 139.391 168.864  0.00  0.00     0.024 A 
HETATM   13  C   UNK     0     150.847 138.153 167.233  0.00  0.00    -0.027 A 
HETATM   14  C   UNK     0     150.468 136.610 164.595  0.00  0.00     0.051 A 
HETATM   15  C   UNK     0     150.419 139.357 169.444  0.00  0.00     0.025 A 
HETATM   16  C   UNK     0     152.897 140.052 170.143  0.00  0.00     0.005 A 
HETATM   17  C   UNK     0     149.437 137.729 166.785  0.00  0.00     0.026 A 
HETATM   18  C   UNK     0     149.247 136.958 165.466  0.00  0.00     0.011 A 
HETATM   19  C   UNK     0     151.386 140.034 170.434  0.00  0.00     0.005 A 
ENDROOT
TORSDOF 0
ENDMDL
MODEL 4
REMARK VINA RESULT:     -11.0     25.513     27.006
REMARK  0 active torsions:
REMARK  status: ('A' for Active; 'I' for Inactive)
ROOT
HETATM    1  O   UNK     0     154.946 139.658 168.851  0.00  0.00    -0.304 OA
HETATM    2  O   UNK     0     156.368 137.230 164.218  0.00  0.00    -0.152 OA
HETATM    3  N   UNK     0     154.003 137.641 165.547  0.00  0.00     0.418 N 
HETATM    4  N   UNK     0     156.068 138.546 166.607  0.00  0.00     0.440 N 
HETATM    5  C   UNK     0     153.598 138.330 166.863  0.00  0.00     0.326 A 
HETATM    6  C   UNK     0     152.126 137.966 166.601  0.00  0.00    -0.009 A 
HETATM    7  C   UNK     0     152.759 138.874 168.034  0.00  0.00     0.031 A 
HETATM    8  C   UNK     0     154.875 138.890 167.518  0.00  0.00     0.424 A 
HETATM    9  C   UNK     0     155.528 137.774 165.389  0.00  0.00     0.663 A 
HETATM   10  C   UNK     0     150.737 138.131 167.247  0.00  0.00    -0.032 A 
HETATM   11  C   UNK     0     153.445 139.630 169.187  0.00  0.00     0.072 A 
HETATM   12  C   UNK     0     152.267 137.224 165.260  0.00  0.00     0.024 A 
HETATM   13  C   UNK     0     151.234 138.661 168.052  0.00  0.00    -0.027 A 
HETATM   14  C   UNK     0     152.605 140.173 170.358  0.00  0.00     0.051 A 
HETATM   15  C   UNK     0     149.491 137.553 166.551  0.00  0.00     0.025 A 
HETATM   16  C   UNK     0     151.021 136.646 164.564  0.00  0.00     0.005 A 
HETATM   17  C   UNK     0     150.395 139.205 169.223  0.00  0.00     0.026 A 
HETATM   18  C   UNK     0     151.080 139.961 170.376  0.00  0.00     0.011 A 
HETATM   19  C   UNK     0     149.633 136.811 165.209  0.00  0.00     0.005 A 
ENDROOT
TORSDOF 0
ENDMDL
MODEL 5
REMARK VINA RESULT:     -10.9      2.388      4.155
REMARK  0 active torsions:
REMARK  status: ('A' for Active; 'I' for Inactive)
ROOT
HETATM    1  O   UNK     0     143.247 116.563 171.093  0.00  0.00    -0.304 OA
HETATM    2  O   UNK     0     140.885 114.749 166.563  0.00  0.00    -0.152 OA
HETATM    3  N   UNK     0     142.487 113.639 168.495  0.00  0.00     0.418 N 
HETATM    4  N   UNK     0     141.899 116.046 168.759  0.00  0.00     0.440 N 
HETATM    5  C   UNK     0     143.158 114.154 169.782  0.00  0.00     0.326 A 
HETATM    6  C   UNK     0     143.758 112.757 170.027  0.00  0.00    -0.009 A 
HETATM    7  C   UNK     0     143.982 114.213 171.081  0.00  0.00     0.031 A 
HETATM    8  C   UNK     0     142.794 115.641 169.945  0.00  0.00     0.424 A 
HETATM    9  C   UNK     0     141.709 114.807 167.863  0.00  0.00     0.663 A 
HETATM   10  C   UNK     0     144.649 112.019 171.044  0.00  0.00    -0.032 A 
HETATM   11  C   UNK     0     144.078 115.530 171.873  0.00  0.00     0.072 A 
HETATM   12  C   UNK     0     143.202 112.007 168.804  0.00  0.00     0.024 A 
HETATM   13  C   UNK     0     144.708 112.954 171.590  0.00  0.00    -0.027 A 
HETATM   14  C   UNK     0     144.902 115.588 173.173  0.00  0.00     0.051 A 
HETATM   15  C   UNK     0     144.984 110.530 170.835  0.00  0.00     0.025 A 
HETATM   16  C   UNK     0     143.536 110.519 168.595  0.00  0.00     0.005 A 
HETATM   17  C   UNK     0     145.532 113.013 172.890  0.00  0.00     0.026 A 
HETATM   18  C   UNK     0     145.629 114.329 173.681  0.00  0.00     0.011 A 
HETATM   19  C   UNK     0     144.427 109.780 169.610  0.00  0.00     0.005 A 
ENDROOT
TORSDOF 0
ENDMDL
MODEL 6
REMARK VINA RESULT:     -10.9     41.650     43.781
REMARK  0 active torsions:
REMARK  status: ('A' for Active; 'I' for Inactive)
ROOT
HETATM    1  O   UNK     0     130.790 157.242 168.550  0.00  0.00    -0.304 OA
HETATM    2  O   UNK     0     132.580 157.972 163.485  0.00  0.00    -0.152 OA
HETATM    3  N   UNK     0     131.863 155.796 164.995  0.00  0.00     0.418 N 
HETATM    4  N   UNK     0     131.702 158.031 166.085  0.00  0.00     0.440 N 
HETATM    5  C   UNK     0     131.355 155.588 166.434  0.00  0.00     0.326 A 
HETATM    6  C   UNK     0     131.294 154.069 166.193  0.00  0.00    -0.009 A 
HETATM    7  C   UNK     0     130.853 154.922 167.728  0.00  0.00     0.031 A 
HETATM    8  C   UNK     0     131.255 156.970 167.107  0.00  0.00     0.424 A 
HETATM    9  C   UNK     0     132.077 157.306 164.779  0.00  0.00     0.663 A 
HETATM   10  C   UNK     0     130.921 152.771 166.933  0.00  0.00    -0.032 A 
HETATM   11  C   UNK     0     130.515 155.785 168.958  0.00  0.00     0.072 A 
HETATM   12  C   UNK     0     131.784 154.009 164.734  0.00  0.00     0.024 A 
HETATM   13  C   UNK     0     130.688 153.392 167.792  0.00  0.00    -0.027 A 
HETATM   14  C   UNK     0     130.013 155.117 170.252  0.00  0.00     0.051 A 
HETATM   15  C   UNK     0     131.038 151.414 166.215  0.00  0.00     0.025 A 
HETATM   16  C   UNK     0     131.901 152.652 164.016  0.00  0.00     0.005 A 
HETATM   17  C   UNK     0     130.186 152.725 169.086  0.00  0.00     0.026 A 
HETATM   18  C   UNK     0     129.849 153.587 170.316  0.00  0.00     0.011 A 
HETATM   19  C   UNK     0     131.528 151.354 164.756  0.00  0.00     0.005 A 
ENDROOT
TORSDOF 0
ENDMDL
MODEL 7
REMARK VINA RESULT:     -10.9     41.558     43.830
REMARK  0 active torsions:
REMARK  status: ('A' for Active; 'I' for Inactive)
ROOT
HETATM    1  O   UNK     0     132.183 154.911 163.766  0.00  0.00    -0.304 OA
HETATM    2  O   UNK     0     131.602 159.474 166.635  0.00  0.00    -0.152 OA
HETATM    3  N   UNK     0     131.208 156.804 167.133  0.00  0.00     0.418 N 
HETATM    4  N   UNK     0     132.026 157.422 164.862  0.00  0.00     0.440 N 
HETATM    5  C   UNK     0     131.373 155.508 166.319  0.00  0.00     0.326 A 
HETATM    6  C   UNK     0     130.896 154.686 167.530  0.00  0.00    -0.009 A 
HETATM    7  C   UNK     0     131.382 154.021 165.918  0.00  0.00     0.031 A 
HETATM    8  C   UNK     0     131.878 155.890 164.915  0.00  0.00     0.424 A 
HETATM    9  C   UNK     0     131.611 157.987 166.234  0.00  0.00     0.663 A 
HETATM   10  C   UNK     0     130.636 153.223 167.934  0.00  0.00    -0.032 A 
HETATM   11  C   UNK     0     131.825 153.609 164.501  0.00  0.00     0.072 A 
HETATM   12  C   UNK     0     130.650 155.819 168.543  0.00  0.00     0.024 A 
HETATM   13  C   UNK     0     130.950 152.948 166.933  0.00  0.00    -0.027 A 
HETATM   14  C   UNK     0     131.834 152.122 164.101  0.00  0.00     0.051 A 
HETATM   15  C   UNK     0     130.130 152.893 169.351  0.00  0.00     0.025 A 
HETATM   16  C   UNK     0     130.145 155.490 169.960  0.00  0.00     0.005 A 
HETATM   17  C   UNK     0     130.959 151.461 166.532  0.00  0.00     0.026 A 
HETATM   18  C   UNK     0     131.401 151.048 165.116  0.00  0.00     0.011 A 
HETATM   19  C   UNK     0     129.885 154.027 170.364  0.00  0.00     0.005 A 
ENDROOT
TORSDOF 0
ENDMDL
MODEL 8
REMARK VINA RESULT:     -10.8     40.854     42.957
REMARK  0 active torsions:
REMARK  status: ('A' for Active; 'I' for Inactive)
ROOT
HETATM    1  O   UNK     0     107.652 139.635 171.644  0.00  0.00    -0.304 OA
HETATM    2  O   UNK     0     106.864 141.615 166.660  0.00  0.00    -0.152 OA
HETATM    3  N   UNK     0     108.867 140.201 167.892  0.00  0.00     0.418 N 
HETATM    4  N   UNK     0     106.877 140.781 169.275  0.00  0.00     0.440 N 
HETATM    5  C   UNK     0     109.091 139.639 169.308  0.00  0.00     0.326 A 
HETATM    6  C   UNK     0     110.457 139.080 168.869  0.00  0.00    -0.009 A 
HETATM    7  C   UNK     0     109.726 138.931 170.519  0.00  0.00     0.031 A 
HETATM    8  C   UNK     0     107.861 139.998 170.162  0.00  0.00     0.424 A 
HETATM    9  C   UNK     0     107.499 140.907 167.871  0.00  0.00     0.663 A 
HETATM   10  C   UNK     0     111.647 138.289 169.443  0.00  0.00    -0.032 A 
HETATM   11  C   UNK     0     108.978 138.888 171.865  0.00  0.00     0.072 A 
HETATM   12  C   UNK     0     110.474 139.536 167.399  0.00  0.00     0.024 A 
HETATM   13  C   UNK     0     111.109 138.267 170.385  0.00  0.00    -0.027 A 
HETATM   14  C   UNK     0     109.614 138.180 173.076  0.00  0.00     0.051 A 
HETATM   15  C   UNK     0     112.854 137.956 168.547  0.00  0.00     0.025 A 
HETATM   16  C   UNK     0     111.681 139.202 166.502  0.00  0.00     0.005 A 
HETATM   17  C   UNK     0     111.744 137.559 171.596  0.00  0.00     0.026 A 
HETATM   18  C   UNK     0     110.997 137.516 172.941  0.00  0.00     0.011 A 
HETATM   19  C   UNK     0     112.871 138.412 167.076  0.00  0.00     0.005 A 
ENDROOT
TORSDOF 0
ENDMDL
MODEL 9
REMARK VINA RESULT:     -10.2     41.477     43.715
REMARK  0 active torsions:
REMARK  status: ('A' for Active; 'I' for Inactive)
ROOT
HETATM    1  O   UNK     0     130.085 152.033 168.776  0.00  0.00    -0.304 OA
HETATM    2  O   UNK     0     129.720 156.618 171.644  0.00  0.00    -0.152 OA
HETATM    3  N   UNK     0     130.552 155.976 169.109  0.00  0.00     0.418 N 
HETATM    4  N   UNK     0     129.747 154.104 170.544  0.00  0.00     0.440 N 
HETATM    5  C   UNK     0     130.656 154.674 168.294  0.00  0.00     0.326 A 
HETATM    6  C   UNK     0     131.212 155.467 167.098  0.00  0.00    -0.009 A 
HETATM    7  C   UNK     0     130.926 153.680 167.150  0.00  0.00     0.031 A 
HETATM    8  C   UNK     0     130.158 153.517 169.181  0.00  0.00     0.424 A 
HETATM    9  C   UNK     0     129.991 155.624 170.499  0.00  0.00     0.663 A 
HETATM   10  C   UNK     0     131.705 155.237 165.657  0.00  0.00    -0.032 A 
HETATM   11  C   UNK     0     130.631 152.181 167.345  0.00  0.00     0.072 A 
HETATM   12  C   UNK     0     131.207 156.887 167.692  0.00  0.00     0.024 A 
HETATM   13  C   UNK     0     131.492 154.184 165.809  0.00  0.00    -0.027 A 
HETATM   14  C   UNK     0     130.902 151.187 166.200  0.00  0.00     0.051 A 
HETATM   15  C   UNK     0     132.192 156.428 164.811  0.00  0.00     0.025 A 
HETATM   16  C   UNK     0     131.694 158.078 166.846  0.00  0.00     0.005 A 
HETATM   17  C   UNK     0     131.763 153.190 164.665  0.00  0.00     0.026 A 
HETATM   18  C   UNK     0     131.468 151.692 164.860  0.00  0.00     0.011 A 
HETATM   19  C   UNK     0     132.187 157.848 165.405  0.00  0.00     0.005 A 
ENDROOT
TORSDOF 0
ENDMDL
MODEL 10
REMARK VINA RESULT:     -10.0      1.577      4.308
REMARK  0 active torsions:
REMARK  status: ('A' for Active; 'I' for Inactive)
ROOT
HETATM    1  O   UNK     0     144.518 109.693 169.600  0.00  0.00    -0.304 OA
HETATM    2  O   UNK     0     147.054 110.919 174.232  0.00  0.00    -0.152 OA
HETATM    3  N   UNK     0     145.480 112.298 172.457  0.00  0.00     0.418 N 
HETATM    4  N   UNK     0     145.934 109.903 171.941  0.00  0.00     0.440 N 
HETATM    5  C   UNK     0     144.759 111.950 171.141  0.00  0.00     0.326 A 
HETATM    6  C   UNK     0     144.231 113.394 171.050  0.00  0.00    -0.009 A 
HETATM    7  C   UNK     0     143.911 112.065 169.861  0.00  0.00     0.031 A 
HETATM    8  C   UNK     0     145.040 110.470 170.823  0.00  0.00     0.424 A 
HETATM    9  C   UNK     0     146.205 111.033 172.952  0.00  0.00     0.663 A 
HETATM   10  C   UNK     0     143.362 114.275 170.133  0.00  0.00    -0.032 A 
HETATM   11  C   UNK     0     143.730 110.840 168.945  0.00  0.00     0.072 A 
HETATM   12  C   UNK     0     144.848 113.987 172.329  0.00  0.00     0.024 A 
HETATM   13  C   UNK     0     143.244 113.404 169.497  0.00  0.00    -0.027 A 
HETATM   14  C   UNK     0     142.881 110.956 167.665  0.00  0.00     0.051 A 
HETATM   15  C   UNK     0     143.112 115.751 170.496  0.00  0.00     0.025 A 
HETATM   16  C   UNK     0     144.597 115.463 172.692  0.00  0.00     0.005 A 
HETATM   17  C   UNK     0     142.396 113.519 168.217  0.00  0.00     0.026 A 
HETATM   18  C   UNK     0     142.214 112.295 167.301  0.00  0.00     0.011 A 
HETATM   19  C   UNK     0     143.729 116.344 171.776  0.00  0.00     0.005 A 
ENDROOT
TORSDOF 0
ENDMDL
