MODEL 1
REMARK VINA RESULT:      -6.3      0.000      0.000
REMARK  2 active torsions:
REMARK  status: ('A' for Active; 'I' for Inactive)
REMARK    1  A    between atoms: C_1  and  C_2 
REMARK    2  A    between atoms: C_1  and  C_5 
ROOT
HETATM    1  C   UNK     0     143.156 114.300 169.844  0.00  0.00     0.035 A 
HETATM    2  C   UNK     0     142.562 115.707 169.643  0.00  0.00     0.120 A 
HETATM    3  N   UNK     0     141.582 115.971 168.486  0.00  0.00    -0.296 NA
HETATM    4  C   UNK     0     142.770 113.158 168.887  0.00  0.00     0.004 A 
HETATM    5  C   UNK     0     141.789 113.421 167.729  0.00  0.00     0.024 A 
HETATM    6  C   UNK     0     141.195 114.828 167.528  0.00  0.00     0.120 A 
HETATM    7  C   UNK     0     141.402 112.279 166.773  0.00  0.00     0.002 C 
ENDROOT
BRANCH   1   8
HETATM    8  C   UNK     0     144.137 114.037 171.002  0.00  0.00     0.100 C 
BRANCH   8   9
HETATM    9  C   UNK     0     144.799 115.261 171.778  0.00  0.00     0.185 C 
HETATM   10  O   UNK     0     146.233 115.587 171.396  0.00  0.00    -0.647 OA
HETATM   11  O   UNK     0     144.027 116.037 172.830  0.00  0.00    -0.647 OA
ENDBRANCH   8   9
ENDBRANCH   1   8
TORSDOF 2
ENDMDL
MODEL 2
REMARK VINA RESULT:      -6.3     39.750     40.875
REMARK  2 active torsions:
REMARK  status: ('A' for Active; 'I' for Inactive)
REMARK    1  A    between atoms: C_1  and  C_2 
REMARK    2  A    between atoms: C_1  and  C_5 
ROOT
HETATM    1  C   UNK     0     131.440 152.932 165.487  0.00  0.00     0.035 A 
HETATM    2  C   UNK     0     131.692 154.428 165.220  0.00  0.00     0.120 A 
HETATM    3  N   UNK     0     131.392 155.467 166.315  0.00  0.00    -0.296 NA
HETATM    4  C   UNK     0     130.887 152.476 166.850  0.00  0.00     0.004 A 
HETATM    5  C   UNK     0     130.586 153.516 167.946  0.00  0.00     0.024 A 
HETATM    6  C   UNK     0     130.839 155.012 167.678  0.00  0.00     0.120 A 
HETATM    7  C   UNK     0     130.033 153.060 169.308  0.00  0.00     0.002 C 
ENDROOT
BRANCH   1   8
HETATM    8  C   UNK     0     131.740 151.892 164.391  0.00  0.00     0.100 C 
BRANCH   8   9
HETATM    9  C   UNK     0     132.224 152.372 162.951  0.00  0.00     0.185 C 
HETATM   10  O   UNK     0     131.135 152.891 162.027  0.00  0.00    -0.647 OA
HETATM   11  O   UNK     0     133.687 152.305 162.548  0.00  0.00    -0.647 OA
ENDBRANCH   8   9
ENDBRANCH   1   8
TORSDOF 2
ENDMDL
MODEL 3
REMARK VINA RESULT:      -6.3     59.995     61.286
REMARK  2 active torsions:
REMARK  status: ('A' for Active; 'I' for Inactive)
REMARK    1  A    between atoms: C_1  and  C_2 
REMARK    2  A    between atoms: C_1  and  C_5 
ROOT
HETATM    1  C   UNK     0     145.740 147.815 118.909  0.00  0.00     0.035 A 
HETATM    2  C   UNK     0     145.849 149.289 119.343  0.00  0.00     0.120 A 
HETATM    3  N   UNK     0     146.633 150.291 118.477  0.00  0.00    -0.296 NA
HETATM    4  C   UNK     0     146.416 147.344 117.609  0.00  0.00     0.004 A 
HETATM    5  C   UNK     0     147.201 148.346 116.742  0.00  0.00     0.024 A 
HETATM    6  C   UNK     0     147.310 149.820 117.175  0.00  0.00     0.120 A 
HETATM    7  C   UNK     0     147.877 147.875 115.441  0.00  0.00     0.002 C 
ENDROOT
BRANCH   1   8
HETATM    8  C   UNK     0     144.955 146.813 119.776  0.00  0.00     0.100 C 
BRANCH   8   9
HETATM    9  C   UNK     0     144.083 145.673 119.084  0.00  0.00     0.185 C 
HETATM   10  O   UNK     0     144.556 144.248 119.315  0.00  0.00    -0.647 OA
HETATM   11  O   UNK     0     142.861 146.014 118.250  0.00  0.00    -0.647 OA
ENDBRANCH   8   9
ENDBRANCH   1   8
TORSDOF 2
ENDMDL
MODEL 4
REMARK VINA RESULT:      -6.1     77.160     77.891
REMARK  2 active torsions:
REMARK  status: ('A' for Active; 'I' for Inactive)
REMARK    1  A    between atoms: C_1  and  C_2 
REMARK    2  A    between atoms: C_1  and  C_5 
ROOT
HETATM    1  C   UNK     0     125.469 155.296 105.467  0.00  0.00     0.035 A 
HETATM    2  C   UNK     0     126.689 154.861 104.632  0.00  0.00     0.120 A 
HETATM    3  N   UNK     0     126.718 153.466 103.980  0.00  0.00    -0.296 NA
HETATM    4  C   UNK     0     124.280 154.336 105.649  0.00  0.00     0.004 A 
HETATM    5  C   UNK     0     124.308 152.942 104.997  0.00  0.00     0.024 A 
HETATM    6  C   UNK     0     125.527 152.506 104.163  0.00  0.00     0.120 A 
HETATM    7  C   UNK     0     123.118 151.982 105.179  0.00  0.00     0.002 C 
ENDROOT
BRANCH   1   8
HETATM    8  C   UNK     0     125.441 156.691 106.119  0.00  0.00     0.100 C 
BRANCH   8   9
HETATM    9  C   UNK     0     124.151 157.168 106.924  0.00  0.00     0.185 C 
HETATM   10  O   UNK     0     123.239 158.140 106.194  0.00  0.00    -0.647 OA
HETATM   11  O   UNK     0     123.871 156.669 108.330  0.00  0.00    -0.647 OA
ENDBRANCH   8   9
ENDBRANCH   1   8
TORSDOF 2
ENDMDL
MODEL 5
REMARK VINA RESULT:      -6.1      3.782      5.149
REMARK  2 active torsions:
REMARK  status: ('A' for Active; 'I' for Inactive)
REMARK    1  A    between atoms: C_1  and  C_2 
REMARK    2  A    between atoms: C_1  and  C_5 
ROOT
HETATM    1  C   UNK     0     142.433 113.186 168.371  0.00  0.00     0.035 A 
HETATM    2  C   UNK     0     141.603 114.336 167.770  0.00  0.00     0.120 A 
HETATM    3  N   UNK     0     141.623 115.728 168.428  0.00  0.00    -0.296 NA
HETATM    4  C   UNK     0     143.284 113.429 169.630  0.00  0.00     0.004 A 
HETATM    5  C   UNK     0     143.305 114.821 170.290  0.00  0.00     0.024 A 
HETATM    6  C   UNK     0     142.475 115.971 169.688  0.00  0.00     0.120 A 
HETATM    7  C   UNK     0     144.156 115.064 171.549  0.00  0.00     0.002 C 
ENDROOT
BRANCH   1   8
HETATM    8  C   UNK     0     142.412 111.795 167.712  0.00  0.00     0.100 C 
BRANCH   8   9
HETATM    9  C   UNK     0     141.314 111.453 166.609  0.00  0.00     0.185 C 
HETATM   10  O   UNK     0     141.631 111.916 165.196  0.00  0.00    -0.647 OA
HETATM   11  O   UNK     0     140.040 110.711 166.969  0.00  0.00    -0.647 OA
ENDBRANCH   8   9
ENDBRANCH   1   8
TORSDOF 2
ENDMDL
MODEL 6
REMARK VINA RESULT:      -5.9     77.728     78.263
REMARK  2 active torsions:
REMARK  status: ('A' for Active; 'I' for Inactive)
REMARK    1  A    between atoms: C_1  and  C_2 
REMARK    2  A    between atoms: C_1  and  C_5 
ROOT
HETATM    1  C   UNK     0     125.028 153.027 104.655  0.00  0.00     0.035 A 
HETATM    2  C   UNK     0     126.421 153.348 104.080  0.00  0.00     0.120 A 
HETATM    3  N   UNK     0     127.051 154.733 104.314  0.00  0.00    -0.296 NA
HETATM    4  C   UNK     0     124.266 154.092 105.463  0.00  0.00     0.004 A 
HETATM    5  C   UNK     0     124.895 155.478 105.698  0.00  0.00     0.024 A 
HETATM    6  C   UNK     0     126.287 155.799 105.123  0.00  0.00     0.120 A 
HETATM    7  C   UNK     0     124.132 156.543 106.506  0.00  0.00     0.002 C 
ENDROOT
BRANCH   1   8
HETATM    8  C   UNK     0     124.399 151.641 104.420  0.00  0.00     0.100 C 
BRANCH   8   9
HETATM    9  C   UNK     0     123.332 151.438 103.254  0.00  0.00     0.185 C 
HETATM   10  O   UNK     0     121.963 152.050 103.499  0.00  0.00    -0.647 OA
HETATM   11  O   UNK     0     123.683 150.678 101.988  0.00  0.00    -0.647 OA
ENDBRANCH   8   9
ENDBRANCH   1   8
TORSDOF 2
ENDMDL
MODEL 7
REMARK VINA RESULT:      -5.9     41.110     42.349
REMARK  2 active torsions:
REMARK  status: ('A' for Active; 'I' for Inactive)
REMARK    1  A    between atoms: C_1  and  C_2 
REMARK    2  A    between atoms: C_1  and  C_5 
ROOT
HETATM    1  C   UNK     0     130.537 154.878 168.869  0.00  0.00     0.035 A 
HETATM    2  C   UNK     0     130.082 153.588 169.579  0.00  0.00     0.120 A 
HETATM    3  N   UNK     0     130.085 152.249 168.819  0.00  0.00    -0.296 NA
HETATM    4  C   UNK     0     130.993 154.827 167.400  0.00  0.00     0.004 A 
HETATM    5  C   UNK     0     130.996 153.488 166.639  0.00  0.00     0.024 A 
HETATM    6  C   UNK     0     130.541 152.198 167.349  0.00  0.00     0.120 A 
HETATM    7  C   UNK     0     131.452 153.437 165.170  0.00  0.00     0.002 C 
ENDROOT
BRANCH   1   8
HETATM    8  C   UNK     0     130.534 156.217 169.630  0.00  0.00     0.100 C 
BRANCH   8   9
HETATM    9  C   UNK     0     129.165 156.996 169.865  0.00  0.00     0.185 C 
HETATM   10  O   UNK     0     129.018 157.683 171.212  0.00  0.00    -0.647 OA
HETATM   11  O   UNK     0     128.087 157.036 168.796  0.00  0.00    -0.647 OA
ENDBRANCH   8   9
ENDBRANCH   1   8
TORSDOF 2
ENDMDL
MODEL 8
REMARK VINA RESULT:      -5.9     70.850     72.480
REMARK  2 active torsions:
REMARK  status: ('A' for Active; 'I' for Inactive)
REMARK    1  A    between atoms: C_1  and  C_2 
REMARK    2  A    between atoms: C_1  and  C_5 
ROOT
HETATM    1  C   UNK     0     112.909 152.973 116.270  0.00  0.00     0.035 A 
HETATM    2  C   UNK     0     112.197 154.236 116.790  0.00  0.00     0.120 A 
HETATM    3  N   UNK     0     111.938 154.408 118.298  0.00  0.00    -0.296 NA
HETATM    4  C   UNK     0     113.361 151.883 117.258  0.00  0.00     0.004 A 
HETATM    5  C   UNK     0     113.102 152.054 118.767  0.00  0.00     0.024 A 
HETATM    6  C   UNK     0     112.390 153.318 119.287  0.00  0.00     0.120 A 
HETATM    7  C   UNK     0     113.554 150.964 119.755  0.00  0.00     0.002 C 
ENDROOT
BRANCH   1   8
HETATM    8  C   UNK     0     113.168 152.801 114.762  0.00  0.00     0.100 C 
BRANCH   8   9
HETATM    9  C   UNK     0     112.132 153.390 113.704  0.00  0.00     0.185 C 
HETATM   10  O   UNK     0     110.830 152.620 113.555  0.00  0.00    -0.647 OA
HETATM   11  O   UNK     0     112.446 154.643 112.906  0.00  0.00    -0.647 OA
ENDBRANCH   8   9
ENDBRANCH   1   8
TORSDOF 2
ENDMDL
MODEL 9
REMARK VINA RESULT:      -5.6     77.687     78.916
REMARK  2 active torsions:
REMARK  status: ('A' for Active; 'I' for Inactive)
REMARK    1  A    between atoms: C_1  and  C_2 
REMARK    2  A    between atoms: C_1  and  C_5 
ROOT
HETATM    1  C   UNK     0     126.975 156.493 105.232  0.00  0.00     0.035 A 
HETATM    2  C   UNK     0     126.128 157.603 105.882  0.00  0.00     0.120 A 
HETATM    3  N   UNK     0     126.540 159.078 105.725  0.00  0.00    -0.296 NA
HETATM    4  C   UNK     0     128.233 156.859 104.424  0.00  0.00     0.004 A 
HETATM    5  C   UNK     0     128.646 158.334 104.266  0.00  0.00     0.024 A 
HETATM    6  C   UNK     0     127.799 159.445 104.917  0.00  0.00     0.120 A 
HETATM    7  C   UNK     0     129.904 158.700 103.459  0.00  0.00     0.002 C 
ENDROOT
BRANCH   1   8
HETATM    8  C   UNK     0     126.562 155.018 105.389  0.00  0.00     0.100 C 
BRANCH   8   9
HETATM    9  C   UNK     0     127.284 153.893 104.522  0.00  0.00     0.185 C 
HETATM   10  O   UNK     0     128.587 153.355 105.090  0.00  0.00    -0.647 OA
HETATM   11  O   UNK     0     126.689 153.403 103.214  0.00  0.00    -0.647 OA
ENDBRANCH   8   9
ENDBRANCH   1   8
TORSDOF 2
ENDMDL
MODEL 10
REMARK VINA RESULT:      -5.5     41.453     42.683
REMARK  2 active torsions:
REMARK  status: ('A' for Active; 'I' for Inactive)
REMARK    1  A    between atoms: C_1  and  C_2 
REMARK    2  A    between atoms: C_1  and  C_5 
ROOT
HETATM    1  C   UNK     0     130.783 155.416 168.223  0.00  0.00     0.035 A 
HETATM    2  C   UNK     0     130.346 154.907 169.609  0.00  0.00     0.120 A 
HETATM    3  N   UNK     0     130.089 153.405 169.833  0.00  0.00    -0.296 NA
HETATM    4  C   UNK     0     130.964 154.422 167.060  0.00  0.00     0.004 A 
HETATM    5  C   UNK     0     130.707 152.920 167.283  0.00  0.00     0.024 A 
HETATM    6  C   UNK     0     130.270 152.411 168.670  0.00  0.00     0.120 A 
HETATM    7  C   UNK     0     130.888 151.927 166.121  0.00  0.00     0.002 C 
ENDROOT
BRANCH   1   8
HETATM    8  C   UNK     0     131.039 156.918 167.999  0.00  0.00     0.100 C 
BRANCH   8   9
HETATM    9  C   UNK     0     129.904 157.832 167.356  0.00  0.00     0.185 C 
HETATM   10  O   UNK     0     128.552 157.166 167.158  0.00  0.00    -0.647 OA
HETATM   11  O   UNK     0     130.178 159.275 166.972  0.00  0.00    -0.647 OA
ENDBRANCH   8   9
ENDBRANCH   1   8
TORSDOF 2
ENDMDL
