MODEL 1
REMARK VINA RESULT:     -11.1      0.000      0.000
REMARK  3 active torsions:
REMARK  status: ('A' for Active; 'I' for Inactive)
REMARK    1  A    between atoms: C_16  and  C_21 
REMARK    2  A    between atoms: C_24  and  O_62 
REMARK    3  A    between atoms: C_34  and  O_35 
ROOT
HETATM    1  C   UNK     0     164.565 114.503 115.644  0.00  0.00     0.018 A 
HETATM    2  C   UNK     0     164.357 114.358 114.125  0.00  0.00     0.166 A 
HETATM    3  C   UNK     0     164.423 113.274 116.562  0.00  0.00     0.004 A 
HETATM    4  N   UNK     0     164.006 112.984 113.524  0.00  0.00    -0.347 N 
HETATM    5  C   UNK     0     164.073 111.901 115.960  0.00  0.00     0.024 A 
HETATM    6  C   UNK     0     163.864 111.756 114.441  0.00  0.00     0.099 A 
HETATM    7  C   UNK     0     164.499 115.587 113.207  0.00  0.00     0.281 C 
HETATM    8  O   UNK     0     164.291 115.442 111.689  0.00  0.00    -0.189 OA
HETATM    9  O   UNK     0     163.940 114.067 111.086  0.00  0.00    -0.196 OA
HETATM   10  C   UNK     0     163.798 112.840 112.005  0.00  0.00     0.265 A 
HETATM   11  C   UNK     0     163.447 111.465 111.403  0.00  0.00     0.231 A 
HETATM   12  O   UNK     0     163.305 110.237 112.320  0.00  0.00    -0.216 OA
HETATM   13  C   UNK     0     164.992 118.190 112.891  0.00  0.00     0.175 A 
HETATM   14  C   UNK     0     164.784 118.044 111.372  0.00  0.00     0.075 A 
HETATM   15  O   UNK     0     164.850 116.961 113.809  0.00  0.00    -0.336 OA
HETATM   16  C   UNK     0     165.485 120.792 112.575  0.00  0.00     0.065 A 
HETATM   17  O   UNK     0     165.277 120.646 111.056  0.00  0.00    -0.317 OA
HETATM   18  C   UNK     0     165.343 119.563 113.493  0.00  0.00    -0.008 A 
HETATM   19  C   UNK     0     164.926 119.272 110.454  0.00  0.00     0.072 A 
HETATM   20  C   UNK     0     165.551 119.709 115.011  0.00  0.00     0.030 C 
HETATM   21  O   UNK     0     163.381 112.548 108.966  0.00  0.00    -0.365 OA
HETATM   22  C   UNK     0     163.239 111.320 109.885  0.00  0.00     0.149 A 
HETATM   23  C   UNK     0     163.173 112.403 107.448  0.00  0.00     0.151 A 
HETATM   24  C   UNK     0     162.822 111.030 106.847  0.00  0.00     0.021 A 
HETATM   25  C   UNK     0     162.888 109.946 109.283  0.00  0.00     0.030 A 
HETATM   26  C   UNK     0     162.680 109.801 107.764  0.00  0.00     0.004 A 
HETATM   27  C   UNK     0     163.315 113.632 106.531  0.00  0.00     0.071 C 
HETATM   28  C   UNK     0     163.107 113.487 105.011  0.00  0.00     0.066 C 
HETATM   29  C   UNK     0     163.600 116.090 104.694  0.00  0.00     0.028 C 
HETATM   30  C   UNK     0     163.249 114.716 104.093  0.00  0.00    -0.025 C 
HETATM   31  C   UNK     0     163.041 114.571 102.574  0.00  0.00     0.028 C 
HETATM   32  C   UNK     0     162.746 108.719 110.201  0.00  0.00     0.003 C 
HETATM   33  C   UNK     0     164.718 119.127 108.935  0.00  0.00    -0.021 C 
HETATM   34  C   UNK     0     164.367 117.754 108.333  0.00  0.00     0.028 C 
HETATM   35  C   UNK     0     164.860 120.356 108.017  0.00  0.00     0.048 C 
HETATM   36  C   UNK     0     164.651 120.211 106.498  0.00  0.00    -0.012 C 
HETATM   37  C   UNK     0     164.301 118.837 105.897  0.00  0.00     0.029 C 
HETATM   38  C   UNK     0     164.794 121.440 105.581  0.00  0.00     0.148 C 
HETATM   39  C   UNK     0     164.585 121.295 104.062  0.00  0.00     0.144 A 
HETATM   40  O   UNK     0     164.235 119.921 103.460  0.00  0.00    -0.322 OA
HETATM   41  O   UNK     0     165.144 122.814 106.182  0.00  0.00    -0.189 OA
HETATM   42  C   UNK     0     164.728 122.523 103.144  0.00  0.00     0.151 A 
HETATM   43  C   UNK     0     163.176 115.784 101.621  0.00  0.00     0.030 C 
HETATM   44  C   UNK     0     162.934 115.616  99.857  0.00  0.00    -0.026 C 
HETATM   45  C   UNK     0     164.519 122.378 101.625  0.00  0.00     0.004 A 
HETATM   46  C   UNK     0     164.164 120.964 101.058  0.00  0.00     0.002 A 
HETATM   47  C   UNK     0     164.026 119.775 101.941  0.00  0.00     0.175 A 
HETATM   48  O   UNK     0     165.078 123.896 103.745  0.00  0.00    -0.188 OA
HETATM   49  C   UNK     0     163.068 116.753  99.030  0.00  0.00    -0.005 C 
HETATM   50  C   UNK     0     163.440 118.142  99.784  0.00  0.00    -0.005 C 
HETATM   51  C   UNK     0     163.753 119.798  99.583  0.00  0.00    -0.024 C 
HETATM   52  C   UNK     0     164.670 123.620 100.757  0.00  0.00     0.033 C 
HETATM   53  O   UNK     0     163.572 112.602 110.493  0.00  0.00     0.000 OA
HETATM   54  C   UNK     0     163.707 120.391  98.162  0.00  0.00     0.031 C 
ENDROOT
BRANCH  16  55
HETATM   55  C   UNK     0     165.836 122.166 113.176  0.00  0.00     0.072 A 
HETATM   56  C   UNK     0     167.308 122.550 113.412  0.00  0.00     0.007 A 
HETATM   57  C   UNK     0     167.659 123.924 114.013  0.00  0.00     0.056 A 
HETATM   58  C   UNK     0     166.537 124.914 114.379  0.00  0.00     0.127 A 
HETATM   59  C   UNK     0     165.065 124.530 114.143  0.00  0.00     0.093 A 
HETATM   60  O   UNK     0     166.888 126.287 114.980  0.00  0.00    -0.193 OA
HETATM   61  C   UNK     0     164.714 123.156 113.542  0.00  0.00     0.053 A 
BRANCH  59  62
HETATM   62  O   UNK     0     163.943 125.519 114.508  0.00  0.00    -0.331 OA
HETATM   63  C   UNK     0     163.197 126.282 113.397  0.00  0.00     0.181 C 
ENDBRANCH  59  62
ENDBRANCH  16  55
BRANCH  28  64
HETATM   64  O   UNK     0     162.756 112.113 104.409  0.00  0.00    -0.333 OA
HETATM   65  C   UNK     0     163.803 111.344 103.585  0.00  0.00     0.181 C 
ENDBRANCH  28  64
TORSDOF 3
ENDMDL
MODEL 2
REMARK VINA RESULT:     -11.0     36.309     42.685
REMARK  3 active torsions:
REMARK  status: ('A' for Active; 'I' for Inactive)
REMARK    1  A    between atoms: C_16  and  C_21 
REMARK    2  A    between atoms: C_24  and  O_62 
REMARK    3  A    between atoms: C_34  and  O_35 
ROOT
HETATM    1  C   UNK     0     155.426 153.901 106.700  0.00  0.00     0.018 A 
HETATM    2  C   UNK     0     155.729 154.922 107.812  0.00  0.00     0.166 A 
HETATM    3  C   UNK     0     153.981 153.419 106.471  0.00  0.00     0.004 A 
HETATM    4  N   UNK     0     154.588 155.462 108.694  0.00  0.00    -0.347 N 
HETATM    5  C   UNK     0     152.841 153.959 107.353  0.00  0.00     0.024 A 
HETATM    6  C   UNK     0     153.144 154.980 108.464  0.00  0.00     0.099 A 
HETATM    7  C   UNK     0     157.174 155.404 108.041  0.00  0.00     0.281 C 
HETATM    8  O   UNK     0     157.478 156.426 109.153  0.00  0.00    -0.189 OA
HETATM    9  O   UNK     0     156.337 156.966 110.036  0.00  0.00    -0.196 OA
HETATM   10  C   UNK     0     154.893 156.484 109.806  0.00  0.00     0.265 A 
HETATM   11  C   UNK     0     153.752 157.024 110.689  0.00  0.00     0.231 A 
HETATM   12  O   UNK     0     152.307 156.542 110.459  0.00  0.00    -0.216 OA
HETATM   13  C   UNK     0     159.761 155.346 107.388  0.00  0.00     0.175 A 
HETATM   14  C   UNK     0     160.064 156.368 108.500  0.00  0.00     0.075 A 
HETATM   15  O   UNK     0     158.316 154.864 107.159  0.00  0.00    -0.336 OA
HETATM   16  C   UNK     0     162.346 155.288 106.736  0.00  0.00     0.065 A 
HETATM   17  O   UNK     0     162.649 156.310 107.848  0.00  0.00    -0.317 OA
HETATM   18  C   UNK     0     160.901 154.806 106.506  0.00  0.00    -0.008 A 
HETATM   19  C   UNK     0     161.508 156.850 108.731  0.00  0.00     0.072 A 
HETATM   20  C   UNK     0     160.598 153.785 105.394  0.00  0.00     0.030 C 
HETATM   21  O   UNK     0     155.499 158.527 112.030  0.00  0.00    -0.365 OA
HETATM   22  C   UNK     0     154.055 158.045 111.800  0.00  0.00     0.149 A 
HETATM   23  C   UNK     0     155.802 159.548 113.141  0.00  0.00     0.151 A 
HETATM   24  C   UNK     0     154.662 160.088 114.023  0.00  0.00     0.021 A 
HETATM   25  C   UNK     0     152.914 158.585 112.682  0.00  0.00     0.030 A 
HETATM   26  C   UNK     0     153.217 159.606 113.794  0.00  0.00     0.004 A 
HETATM   27  C   UNK     0     157.247 160.030 113.371  0.00  0.00     0.071 C 
HETATM   28  C   UNK     0     157.551 161.052 114.483  0.00  0.00     0.066 C 
HETATM   29  C   UNK     0     160.137 160.994 113.830  0.00  0.00     0.028 C 
HETATM   30  C   UNK     0     158.996 161.534 114.712  0.00  0.00    -0.025 C 
HETATM   31  C   UNK     0     159.300 162.555 115.824  0.00  0.00     0.028 C 
HETATM   32  C   UNK     0     151.470 158.103 112.452  0.00  0.00     0.003 C 
HETATM   33  C   UNK     0     161.812 157.872 109.842  0.00  0.00    -0.021 C 
HETATM   34  C   UNK     0     160.672 158.411 110.724  0.00  0.00     0.028 C 
HETATM   35  C   UNK     0     163.257 158.353 110.072  0.00  0.00     0.048 C 
HETATM   36  C   UNK     0     163.560 159.375 111.183  0.00  0.00    -0.012 C 
HETATM   37  C   UNK     0     162.419 159.915 112.066  0.00  0.00     0.029 C 
HETATM   38  C   UNK     0     165.005 159.856 111.413  0.00  0.00     0.148 C 
HETATM   39  C   UNK     0     165.309 160.878 112.525  0.00  0.00     0.144 A 
HETATM   40  O   UNK     0     164.168 161.418 113.407  0.00  0.00    -0.322 OA
HETATM   41  O   UNK     0     166.147 159.317 110.531  0.00  0.00    -0.189 OA
HETATM   42  C   UNK     0     166.754 161.360 112.754  0.00  0.00     0.151 A 
HETATM   43  C   UNK     0     160.740 163.062 116.083  0.00  0.00     0.030 C 
HETATM   44  C   UNK     0     161.093 164.249 117.375  0.00  0.00    -0.026 C 
HETATM   45  C   UNK     0     167.057 162.381 113.866  0.00  0.00     0.004 A 
HETATM   46  C   UNK     0     165.868 162.903 114.738  0.00  0.00     0.002 A 
HETATM   47  C   UNK     0     164.471 162.439 114.519  0.00  0.00     0.175 A 
HETATM   48  O   UNK     0     167.894 160.820 111.872  0.00  0.00    -0.188 OA
HETATM   49  C   UNK     0     162.423 164.679 117.571  0.00  0.00    -0.005 C 
HETATM   50  C   UNK     0     163.535 164.037 116.577  0.00  0.00    -0.005 C 
HETATM   51  C   UNK     0     165.180 164.000 116.162  0.00  0.00    -0.024 C 
HETATM   52  C   UNK     0     168.500 162.829 114.056  0.00  0.00     0.033 C 
HETATM   53  O   UNK     0     155.106 157.510 110.943  0.00  0.00     0.000 OA
HETATM   54  C   UNK     0     166.163 164.881 116.957  0.00  0.00     0.031 C 
ENDROOT
BRANCH  16  55
HETATM   55  C   UNK     0     163.487 154.748 105.853  0.00  0.00     0.072 A 
HETATM   56  C   UNK     0     163.796 153.240 105.832  0.00  0.00     0.007 A 
HETATM   57  C   UNK     0     164.938 152.700 104.950  0.00  0.00     0.056 A 
HETATM   58  C   UNK     0     165.770 153.669 104.089  0.00  0.00     0.127 A 
HETATM   59  C   UNK     0     165.461 155.177 104.110  0.00  0.00     0.093 A 
HETATM   60  O   UNK     0     166.910 153.129 103.207  0.00  0.00    -0.193 OA
HETATM   61  C   UNK     0     164.319 155.717 104.992  0.00  0.00     0.053 A 
BRANCH  59  62
HETATM   62  O   UNK     0     166.292 156.146 103.249  0.00  0.00    -0.331 OA
HETATM   63  C   UNK     0     166.876 157.425 103.877  0.00  0.00     0.181 C 
ENDBRANCH  59  62
ENDBRANCH  16  55
BRANCH  28  64
HETATM   64  O   UNK     0     156.410 161.592 115.365  0.00  0.00    -0.333 OA
HETATM   65  C   UNK     0     156.454 161.389 116.890  0.00  0.00     0.181 C 
ENDBRANCH  28  64
TORSDOF 3
ENDMDL
MODEL 3
REMARK VINA RESULT:     -10.8     17.424     26.759
REMARK  3 active torsions:
REMARK  status: ('A' for Active; 'I' for Inactive)
REMARK    1  A    between atoms: C_16  and  C_21 
REMARK    2  A    between atoms: C_24  and  O_62 
REMARK    3  A    between atoms: C_34  and  O_35 
ROOT
HETATM    1  C   UNK     0     154.563 102.967 100.305  0.00  0.00     0.018 A 
HETATM    2  C   UNK     0     154.953 102.078 101.501  0.00  0.00     0.166 A 
HETATM    3  C   UNK     0     155.509 104.091  99.841  0.00  0.00     0.004 A 
HETATM    4  N   UNK     0     156.288 102.312 102.232  0.00  0.00    -0.347 N 
HETATM    5  C   UNK     0     156.843 104.324 100.572  0.00  0.00     0.024 A 
HETATM    6  C   UNK     0     157.233 103.435 101.767  0.00  0.00     0.099 A 
HETATM    7  C   UNK     0     154.007 100.955 101.965  0.00  0.00     0.281 C 
HETATM    8  O   UNK     0     154.397 100.065 103.161  0.00  0.00    -0.189 OA
HETATM    9  O   UNK     0     155.732 100.299 103.892  0.00  0.00    -0.196 OA
HETATM   10  C   UNK     0     156.677 101.422 103.427  0.00  0.00     0.265 A 
HETATM   11  C   UNK     0     158.013 101.656 104.158  0.00  0.00     0.231 A 
HETATM   12  O   UNK     0     158.959 102.779 103.694  0.00  0.00    -0.216 OA
HETATM   13  C   UNK     0     151.726  99.597 101.699  0.00  0.00     0.175 A 
HETATM   14  C   UNK     0     152.115  98.708 102.894  0.00  0.00     0.075 A 
HETATM   15  O   UNK     0     152.671 100.720 101.234  0.00  0.00    -0.336 OA
HETATM   16  C   UNK     0     149.445  98.240 101.433  0.00  0.00     0.065 A 
HETATM   17  O   UNK     0     149.835  97.351 102.628  0.00  0.00    -0.317 OA
HETATM   18  C   UNK     0     150.391  99.364 100.968  0.00  0.00    -0.008 A 
HETATM   19  C   UNK     0     151.170  97.584 103.360  0.00  0.00     0.072 A 
HETATM   20  C   UNK     0     150.000 100.252  99.773  0.00  0.00     0.030 C 
HETATM   21  O   UNK     0     157.457  99.643 105.818  0.00  0.00    -0.365 OA
HETATM   22  C   UNK     0     158.402 100.767 105.353  0.00  0.00     0.149 A 
HETATM   23  C   UNK     0     157.847  98.754 107.013  0.00  0.00     0.151 A 
HETATM   24  C   UNK     0     159.182  98.988 107.743  0.00  0.00     0.021 A 
HETATM   25  C   UNK     0     159.738 101.001 106.084  0.00  0.00     0.030 A 
HETATM   26  C   UNK     0     160.127 100.111 107.279  0.00  0.00     0.004 A 
HETATM   27  C   UNK     0     156.901  97.631 107.477  0.00  0.00     0.071 C 
HETATM   28  C   UNK     0     157.291  96.741 108.673  0.00  0.00     0.066 C 
HETATM   29  C   UNK     0     155.010  95.383 108.407  0.00  0.00     0.028 C 
HETATM   30  C   UNK     0     156.345  95.618 109.138  0.00  0.00    -0.025 C 
HETATM   31  C   UNK     0     156.735  94.728 110.333  0.00  0.00     0.028 C 
HETATM   32  C   UNK     0     160.683 102.124 105.619  0.00  0.00     0.003 C 
HETATM   33  C   UNK     0     151.560  96.695 104.555  0.00  0.00    -0.021 C 
HETATM   34  C   UNK     0     152.895  96.928 105.286  0.00  0.00     0.028 C 
HETATM   35  C   UNK     0     150.614  95.571 105.019  0.00  0.00     0.048 C 
HETATM   36  C   UNK     0     151.004  94.682 106.215  0.00  0.00    -0.012 C 
HETATM   37  C   UNK     0     152.339  94.916 106.945  0.00  0.00     0.029 C 
HETATM   38  C   UNK     0     150.058  93.558 106.679  0.00  0.00     0.148 C 
HETATM   39  C   UNK     0     150.448  92.669 107.874  0.00  0.00     0.144 A 
HETATM   40  O   UNK     0     151.783  92.903 108.605  0.00  0.00    -0.322 OA
HETATM   41  O   UNK     0     148.723  93.324 105.948  0.00  0.00    -0.189 OA
HETATM   42  C   UNK     0     149.502  91.546 108.339  0.00  0.00     0.151 A 
HETATM   43  C   UNK     0     155.809  93.589 110.827  0.00  0.00     0.030 C 
HETATM   44  C   UNK     0     156.261  92.556 112.216  0.00  0.00    -0.026 C 
HETATM   45  C   UNK     0     149.892  90.656 109.534  0.00  0.00     0.004 A 
HETATM   46  C   UNK     0     151.257  90.929 110.247  0.00  0.00     0.002 A 
HETATM   47  C   UNK     0     152.173  92.014 109.800  0.00  0.00     0.175 A 
HETATM   48  O   UNK     0     148.167  91.312 107.608  0.00  0.00    -0.188 OA
HETATM   49  C   UNK     0     155.382  91.531 112.629  0.00  0.00    -0.005 C 
HETATM   50  C   UNK     0     154.007  91.386 111.777  0.00  0.00    -0.005 C 
HETATM   51  C   UNK     0     152.556  90.522 111.608  0.00  0.00    -0.024 C 
HETATM   52  C   UNK     0     148.926  89.558 109.958  0.00  0.00     0.033 C 
HETATM   53  O   UNK     0     157.148 100.578 104.635  0.00  0.00     0.000 OA
HETATM   54  C   UNK     0     152.266  89.366 112.584  0.00  0.00     0.031 C 
ENDROOT
BRANCH  16  55
HETATM   55  C   UNK     0     148.109  98.006 100.702  0.00  0.00     0.072 A 
HETATM   56  C   UNK     0     146.814  98.639 101.243  0.00  0.00     0.007 A 
HETATM   57  C   UNK     0     145.479  98.405 100.513  0.00  0.00     0.056 A 
HETATM   58  C   UNK     0     145.438  97.538  99.240  0.00  0.00     0.127 A 
HETATM   59  C   UNK     0     146.734  96.905  98.699  0.00  0.00     0.093 A 
HETATM   60  O   UNK     0     144.103  97.304  98.510  0.00  0.00    -0.193 OA
HETATM   61  C   UNK     0     148.069  97.139  99.429  0.00  0.00     0.053 A 
BRANCH  59  62
HETATM   62  O   UNK     0     146.694  96.038  97.427  0.00  0.00    -0.331 OA
HETATM   63  C   UNK     0     147.391  96.524  96.142  0.00  0.00     0.181 C 
ENDBRANCH  59  62
ENDBRANCH  16  55
BRANCH  28  64
HETATM   64  O   UNK     0     158.627  96.975 109.404  0.00  0.00    -0.333 OA
HETATM   65  C   UNK     0     159.790  95.986 109.216  0.00  0.00     0.181 C 
ENDBRANCH  28  64
TORSDOF 3
ENDMDL
MODEL 4
REMARK VINA RESULT:     -10.8     69.645     77.859
REMARK  3 active torsions:
REMARK  status: ('A' for Active; 'I' for Inactive)
REMARK    1  A    between atoms: C_16  and  C_21 
REMARK    2  A    between atoms: C_24  and  O_62 
REMARK    3  A    between atoms: C_34  and  O_35 
ROOT
HETATM    1  C   UNK     0     126.529 154.539 159.978  0.00  0.00     0.018 A 
HETATM    2  C   UNK     0     127.885 155.003 160.540  0.00  0.00     0.166 A 
HETATM    3  C   UNK     0     126.397 154.171 158.488  0.00  0.00     0.004 A 
HETATM    4  N   UNK     0     129.110 155.101 159.611  0.00  0.00    -0.347 N 
HETATM    5  C   UNK     0     127.622 154.269 157.560  0.00  0.00     0.024 A 
HETATM    6  C   UNK     0     128.979 154.733 158.122  0.00  0.00     0.099 A 
HETATM    7  C   UNK     0     128.017 155.371 162.030  0.00  0.00     0.281 C 
HETATM    8  O   UNK     0     129.373 155.836 162.591  0.00  0.00    -0.189 OA
HETATM    9  O   UNK     0     130.599 155.933 161.663  0.00  0.00    -0.196 OA
HETATM   10  C   UNK     0     130.467 155.565 160.173  0.00  0.00     0.265 A 
HETATM   11  C   UNK     0     131.693 155.663 159.245  0.00  0.00     0.231 A 
HETATM   12  O   UNK     0     131.561 155.295 157.755  0.00  0.00    -0.216 OA
HETATM   13  C   UNK     0     126.923 155.641 164.448  0.00  0.00     0.175 A 
HETATM   14  C   UNK     0     128.280 156.106 165.010  0.00  0.00     0.075 A 
HETATM   15  O   UNK     0     126.792 155.274 162.958  0.00  0.00    -0.336 OA
HETATM   16  C   UNK     0     125.830 155.911 166.866  0.00  0.00     0.065 A 
HETATM   17  O   UNK     0     127.186 156.376 167.427  0.00  0.00    -0.317 OA
HETATM   18  C   UNK     0     125.698 155.544 165.376  0.00  0.00    -0.008 A 
HETATM   19  C   UNK     0     128.412 156.473 166.499  0.00  0.00     0.072 A 
HETATM   20  C   UNK     0     124.341 155.079 164.815  0.00  0.00     0.030 C 
HETATM   21  O   UNK     0     133.181 156.495 161.296  0.00  0.00    -0.365 OA
HETATM   22  C   UNK     0     133.048 156.127 159.807  0.00  0.00     0.149 A 
HETATM   23  C   UNK     0     134.537 156.959 161.857  0.00  0.00     0.151 A 
HETATM   24  C   UNK     0     135.761 157.057 160.930  0.00  0.00     0.021 A 
HETATM   25  C   UNK     0     134.273 156.225 158.878  0.00  0.00     0.030 A 
HETATM   26  C   UNK     0     135.630 156.689 159.440  0.00  0.00     0.004 A 
HETATM   27  C   UNK     0     134.668 157.327 163.347  0.00  0.00     0.071 C 
HETATM   28  C   UNK     0     136.026 157.792 163.909  0.00  0.00     0.066 C 
HETATM   29  C   UNK     0     134.932 158.062 166.328  0.00  0.00     0.028 C 
HETATM   30  C   UNK     0     136.157 158.159 165.399  0.00  0.00    -0.025 C 
HETATM   31  C   UNK     0     137.514 158.624 165.961  0.00  0.00     0.028 C 
HETATM   32  C   UNK     0     134.141 155.857 157.389  0.00  0.00     0.003 C 
HETATM   33  C   UNK     0     129.769 156.938 167.061  0.00  0.00    -0.021 C 
HETATM   34  C   UNK     0     130.994 157.036 166.133  0.00  0.00     0.028 C 
HETATM   35  C   UNK     0     129.901 157.306 168.551  0.00  0.00     0.048 C 
HETATM   36  C   UNK     0     131.257 157.770 169.112  0.00  0.00    -0.012 C 
HETATM   37  C   UNK     0     132.482 157.868 168.184  0.00  0.00     0.029 C 
HETATM   38  C   UNK     0     131.389 158.138 170.602  0.00  0.00     0.148 C 
HETATM   39  C   UNK     0     132.745 158.603 171.164  0.00  0.00     0.144 A 
HETATM   40  O   UNK     0     133.970 158.700 170.235  0.00  0.00    -0.322 OA
HETATM   41  O   UNK     0     130.164 158.041 171.531  0.00  0.00    -0.189 OA
HETATM   42  C   UNK     0     132.877 158.970 172.654  0.00  0.00     0.151 A 
HETATM   43  C   UNK     0     137.683 159.002 167.453  0.00  0.00     0.030 C 
HETATM   44  C   UNK     0     139.259 159.541 168.105  0.00  0.00    -0.026 C 
HETATM   45  C   UNK     0     134.233 159.435 173.215  0.00  0.00     0.004 A 
HETATM   46  C   UNK     0     135.451 159.519 172.236  0.00  0.00     0.002 A 
HETATM   47  C   UNK     0     135.327 159.165 170.797  0.00  0.00     0.175 A 
HETATM   48  O   UNK     0     131.652 158.873 173.581  0.00  0.00    -0.188 OA
HETATM   49  C   UNK     0     139.362 159.874 169.474  0.00  0.00    -0.005 C 
HETATM   50  C   UNK     0     137.999 159.731 170.347  0.00  0.00    -0.005 C 
HETATM   51  C   UNK     0     137.304 159.902 171.885  0.00  0.00    -0.024 C 
HETATM   52  C   UNK     0     134.317 159.788 174.694  0.00  0.00     0.033 C 
HETATM   53  O   UNK     0     131.865 156.022 160.651  0.00  0.00     0.000 OA
HETATM   54  C   UNK     0     138.192 160.385 173.048  0.00  0.00     0.031 C 
ENDROOT
BRANCH  16  55
HETATM   55  C   UNK     0     124.605 155.814 167.794  0.00  0.00     0.072 A 
HETATM   56  C   UNK     0     124.247 156.989 168.723  0.00  0.00     0.007 A 
HETATM   57  C   UNK     0     123.022 156.892 169.651  0.00  0.00     0.056 A 
HETATM   58  C   UNK     0     122.155 155.619 169.651  0.00  0.00     0.127 A 
HETATM   59  C   UNK     0     122.512 154.444 168.722  0.00  0.00     0.093 A 
HETATM   60  O   UNK     0     120.930 155.523 170.579  0.00  0.00    -0.193 OA
HETATM   61  C   UNK     0     123.737 154.541 167.794  0.00  0.00     0.053 A 
BRANCH  59  62
HETATM   62  O   UNK     0     121.645 153.172 168.722  0.00  0.00    -0.331 OA
HETATM   63  C   UNK     0     120.287 153.166 167.994  0.00  0.00     0.181 C 
ENDBRANCH  59  62
ENDBRANCH  16  55
BRANCH  28  64
HETATM   64  O   UNK     0     137.251 157.889 162.981  0.00  0.00    -0.333 OA
HETATM   65  C   UNK     0     137.812 159.268 162.589  0.00  0.00     0.181 C 
ENDBRANCH  28  64
TORSDOF 3
ENDMDL
MODEL 5
REMARK VINA RESULT:     -10.7     60.179     66.675
REMARK  3 active torsions:
REMARK  status: ('A' for Active; 'I' for Inactive)
REMARK    1  A    between atoms: C_16  and  C_21 
REMARK    2  A    between atoms: C_24  and  O_62 
REMARK    3  A    between atoms: C_34  and  O_35 
ROOT
HETATM    1  C   UNK     0     141.190 112.092 165.794  0.00  0.00     0.018 A 
HETATM    2  C   UNK     0     142.060 111.807 167.032  0.00  0.00     0.166 A 
HETATM    3  C   UNK     0     140.624 113.505 165.559  0.00  0.00     0.004 A 
HETATM    4  N   UNK     0     142.364 112.935 168.036  0.00  0.00    -0.347 N 
HETATM    5  C   UNK     0     140.929 114.632 166.562  0.00  0.00     0.024 A 
HETATM    6  C   UNK     0     141.798 114.347 167.801  0.00  0.00     0.099 A 
HETATM    7  C   UNK     0     142.625 110.393 167.267  0.00  0.00     0.281 C 
HETATM    8  O   UNK     0     143.495 110.108 168.506  0.00  0.00    -0.189 OA
HETATM    9  O   UNK     0     143.799 111.236 169.510  0.00  0.00    -0.196 OA
HETATM   10  C   UNK     0     143.233 112.649 169.274  0.00  0.00     0.265 A 
HETATM   11  C   UNK     0     143.538 113.777 170.279  0.00  0.00     0.231 A 
HETATM   12  O   UNK     0     142.972 115.190 170.044  0.00  0.00    -0.216 OA
HETATM   13  C   UNK     0     142.887 107.852 166.499  0.00  0.00     0.175 A 
HETATM   14  C   UNK     0     143.756 107.567 167.737  0.00  0.00     0.075 A 
HETATM   15  O   UNK     0     142.321 109.265 166.264  0.00  0.00    -0.336 OA
HETATM   16  C   UNK     0     143.148 105.311 165.730  0.00  0.00     0.065 A 
HETATM   17  O   UNK     0     144.018 105.026 166.969  0.00  0.00    -0.317 OA
HETATM   18  C   UNK     0     142.583 106.725 165.495  0.00  0.00    -0.008 A 
HETATM   19  C   UNK     0     144.322 106.154 167.973  0.00  0.00     0.072 A 
HETATM   20  C   UNK     0     141.713 107.009 164.256  0.00  0.00     0.030 C 
HETATM   21  O   UNK     0     144.973 112.079 171.753  0.00  0.00    -0.365 OA
HETATM   22  C   UNK     0     144.407 113.492 171.517  0.00  0.00     0.149 A 
HETATM   23  C   UNK     0     145.842 111.794 172.991  0.00  0.00     0.151 A 
HETATM   24  C   UNK     0     146.146 112.921 173.994  0.00  0.00     0.021 A 
HETATM   25  C   UNK     0     144.711 114.620 172.520  0.00  0.00     0.030 A 
HETATM   26  C   UNK     0     145.580 114.334 173.759  0.00  0.00     0.004 A 
HETATM   27  C   UNK     0     146.407 110.381 173.226  0.00  0.00     0.071 C 
HETATM   28  C   UNK     0     147.277 110.095 174.465  0.00  0.00     0.066 C 
HETATM   29  C   UNK     0     147.539 107.554 173.696  0.00  0.00     0.028 C 
HETATM   30  C   UNK     0     147.843 108.682 174.700  0.00  0.00    -0.025 C 
HETATM   31  C   UNK     0     148.712 108.397 175.939  0.00  0.00     0.028 C 
HETATM   32  C   UNK     0     144.145 116.032 172.285  0.00  0.00     0.003 C 
HETATM   33  C   UNK     0     145.192 105.869 169.212  0.00  0.00    -0.021 C 
HETATM   34  C   UNK     0     145.496 106.996 170.215  0.00  0.00     0.028 C 
HETATM   35  C   UNK     0     145.757 104.456 169.447  0.00  0.00     0.048 C 
HETATM   36  C   UNK     0     146.627 104.171 170.685  0.00  0.00    -0.012 C 
HETATM   37  C   UNK     0     146.931 105.299 171.689  0.00  0.00     0.029 C 
HETATM   38  C   UNK     0     147.192 102.757 170.920  0.00  0.00     0.148 C 
HETATM   39  C   UNK     0     148.062 102.472 172.159  0.00  0.00     0.144 A 
HETATM   40  O   UNK     0     148.366 103.600 173.163  0.00  0.00    -0.322 OA
HETATM   41  O   UNK     0     146.888 101.629 169.917  0.00  0.00    -0.189 OA
HETATM   42  C   UNK     0     148.627 101.059 172.394  0.00  0.00     0.151 A 
HETATM   43  C   UNK     0     149.298 106.988 176.207  0.00  0.00     0.030 C 
HETATM   44  C   UNK     0     150.308 106.657 177.646  0.00  0.00    -0.026 C 
HETATM   45  C   UNK     0     149.497 100.774 173.633  0.00  0.00     0.004 A 
HETATM   46  C   UNK     0     149.780 101.949 174.626  0.00  0.00     0.002 A 
HETATM   47  C   UNK     0     149.235 103.315 174.401  0.00  0.00     0.175 A 
HETATM   48  O   UNK     0     148.323  99.932 171.391  0.00  0.00    -0.188 OA
HETATM   49  C   UNK     0     150.818 105.356 177.846  0.00  0.00    -0.005 C 
HETATM   50  C   UNK     0     150.427 104.255 176.717  0.00  0.00    -0.005 C 
HETATM   51  C   UNK     0     150.593 102.639 176.228  0.00  0.00    -0.024 C 
HETATM   52  C   UNK     0     150.035  99.362 173.824  0.00  0.00     0.033 C 
HETATM   53  O   UNK     0     144.096 112.452 170.543  0.00  0.00     0.000 OA
HETATM   54  C   UNK     0     151.429 101.684 177.103  0.00  0.00     0.031 C 
ENDROOT
BRANCH  16  55
HETATM   55  C   UNK     0     142.844 104.183 164.726  0.00  0.00     0.072 A 
HETATM   56  C   UNK     0     143.736 103.997 163.485  0.00  0.00     0.007 A 
HETATM   57  C   UNK     0     143.432 102.869 162.481  0.00  0.00     0.056 A 
HETATM   58  C   UNK     0     142.236 101.927 162.719  0.00  0.00     0.127 A 
HETATM   59  C   UNK     0     141.345 102.113 163.961  0.00  0.00     0.093 A 
HETATM   60  O   UNK     0     141.933 100.800 161.716  0.00  0.00    -0.193 OA
HETATM   61  C   UNK     0     141.649 103.242 164.965  0.00  0.00     0.053 A 
BRANCH  59  62
HETATM   62  O   UNK     0     140.150 101.172 164.199  0.00  0.00    -0.331 OA
HETATM   63  C   UNK     0     140.390  99.734 164.696  0.00  0.00     0.181 C 
ENDBRANCH  59  62
ENDBRANCH  16  55
BRANCH  28  64
HETATM   64  O   UNK     0     147.581 111.224 175.469  0.00  0.00    -0.333 OA
HETATM   65  C   UNK     0     146.894 111.234 176.845  0.00  0.00     0.181 C 
ENDBRANCH  28  64
TORSDOF 3
ENDMDL
MODEL 6
REMARK VINA RESULT:     -10.5     58.262     66.159
REMARK  3 active torsions:
REMARK  status: ('A' for Active; 'I' for Inactive)
REMARK    1  A    between atoms: C_16  and  C_21 
REMARK    2  A    between atoms: C_24  and  O_62 
REMARK    3  A    between atoms: C_34  and  O_35 
ROOT
HETATM    1  C   UNK     0     153.439 138.135 162.041  0.00  0.00     0.018 A 
HETATM    2  C   UNK     0     154.176 137.753 163.338  0.00  0.00     0.166 A 
HETATM    3  C   UNK     0     153.584 137.255 160.785  0.00  0.00     0.004 A 
HETATM    4  N   UNK     0     155.056 136.490 163.380  0.00  0.00    -0.347 N 
HETATM    5  C   UNK     0     154.464 135.993 160.828  0.00  0.00     0.024 A 
HETATM    6  C   UNK     0     155.200 135.610 162.125  0.00  0.00     0.099 A 
HETATM    7  C   UNK     0     154.031 138.634 164.593  0.00  0.00     0.281 C 
HETATM    8  O   UNK     0     154.767 138.251 165.891  0.00  0.00    -0.189 OA
HETATM    9  O   UNK     0     155.648 136.988 165.934  0.00  0.00    -0.196 OA
HETATM   10  C   UNK     0     155.792 136.108 164.678  0.00  0.00     0.265 A 
HETATM   11  C   UNK     0     156.673 134.845 164.721  0.00  0.00     0.231 A 
HETATM   12  O   UNK     0     156.818 133.965 163.466  0.00  0.00    -0.216 OA
HETATM   13  C   UNK     0     153.006 140.777 165.807  0.00  0.00     0.175 A 
HETATM   14  C   UNK     0     153.742 140.395 167.104  0.00  0.00     0.075 A 
HETATM   15  O   UNK     0     153.150 139.897 164.551  0.00  0.00    -0.336 OA
HETATM   16  C   UNK     0     151.981 142.920 167.020  0.00  0.00     0.065 A 
HETATM   17  O   UNK     0     152.717 142.538 168.317  0.00  0.00    -0.317 OA
HETATM   18  C   UNK     0     152.126 142.039 165.764  0.00  0.00    -0.008 A 
HETATM   19  C   UNK     0     153.598 141.274 168.360  0.00  0.00     0.072 A 
HETATM   20  C   UNK     0     151.389 142.422 164.467  0.00  0.00     0.030 C 
HETATM   21  O   UNK     0     157.265 135.343 167.273  0.00  0.00    -0.365 OA
HETATM   22  C   UNK     0     157.409 134.463 166.018  0.00  0.00     0.149 A 
HETATM   23  C   UNK     0     158.001 134.961 168.570  0.00  0.00     0.151 A 
HETATM   24  C   UNK     0     158.881 133.698 168.613  0.00  0.00     0.021 A 
HETATM   25  C   UNK     0     158.290 133.200 166.060  0.00  0.00     0.030 A 
HETATM   26  C   UNK     0     159.026 132.818 167.357  0.00  0.00     0.004 A 
HETATM   27  C   UNK     0     157.857 135.841 169.825  0.00  0.00     0.071 C 
HETATM   28  C   UNK     0     158.593 135.459 171.124  0.00  0.00     0.066 C 
HETATM   29  C   UNK     0     157.568 137.602 172.337  0.00  0.00     0.028 C 
HETATM   30  C   UNK     0     158.449 136.339 172.379  0.00  0.00    -0.025 C 
HETATM   31  C   UNK     0     159.185 135.957 173.677  0.00  0.00     0.028 C 
HETATM   32  C   UNK     0     158.434 132.320 164.805  0.00  0.00     0.003 C 
HETATM   33  C   UNK     0     154.335 140.892 169.658  0.00  0.00    -0.021 C 
HETATM   34  C   UNK     0     155.215 139.630 169.700  0.00  0.00     0.028 C 
HETATM   35  C   UNK     0     154.190 141.773 170.913  0.00  0.00     0.048 C 
HETATM   36  C   UNK     0     154.926 141.390 172.210  0.00  0.00    -0.012 C 
HETATM   37  C   UNK     0     155.807 140.127 172.253  0.00  0.00     0.029 C 
HETATM   38  C   UNK     0     154.782 142.271 173.466  0.00  0.00     0.148 C 
HETATM   39  C   UNK     0     155.518 141.889 174.763  0.00  0.00     0.144 A 
HETATM   40  O   UNK     0     156.399 140.626 174.805  0.00  0.00    -0.322 OA
HETATM   41  O   UNK     0     153.901 143.534 173.424  0.00  0.00    -0.189 OA
HETATM   42  C   UNK     0     155.373 142.769 176.019  0.00  0.00     0.151 A 
HETATM   43  C   UNK     0     159.063 136.819 174.958  0.00  0.00     0.030 C 
HETATM   44  C   UNK     0     159.918 136.375 176.465  0.00  0.00    -0.026 C 
HETATM   45  C   UNK     0     156.110 142.387 177.316  0.00  0.00     0.004 A 
HETATM   46  C   UNK     0     156.993 141.096 177.314  0.00  0.00     0.002 A 
HETATM   47  C   UNK     0     157.135 140.243 176.103  0.00  0.00     0.175 A 
HETATM   48  O   UNK     0     154.493 144.031 175.976  0.00  0.00    -0.188 OA
HETATM   49  C   UNK     0     159.774 137.193 177.607  0.00  0.00    -0.005 C 
HETATM   50  C   UNK     0     158.819 138.495 177.434  0.00  0.00    -0.005 C 
HETATM   51  C   UNK     0     158.167 139.859 178.206  0.00  0.00    -0.024 C 
HETATM   52  C   UNK     0     155.938 143.287 178.532  0.00  0.00     0.033 C 
HETATM   53  O   UNK     0     156.566 135.650 165.936  0.00  0.00     0.000 OA
HETATM   54  C   UNK     0     158.529 140.117 179.681  0.00  0.00     0.031 C 
ENDROOT
BRANCH  16  55
HETATM   55  C   UNK     0     151.100 144.183 166.978  0.00  0.00     0.072 A 
HETATM   56  C   UNK     0     149.700 144.124 166.339  0.00  0.00     0.007 A 
HETATM   57  C   UNK     0     148.819 145.387 166.297  0.00  0.00     0.056 A 
HETATM   58  C   UNK     0     149.339 146.709 166.894  0.00  0.00     0.127 A 
HETATM   59  C   UNK     0     150.739 146.768 167.532  0.00  0.00     0.093 A 
HETATM   60  O   UNK     0     148.458 147.971 166.851  0.00  0.00    -0.193 OA
HETATM   61  C   UNK     0     151.620 145.505 167.574  0.00  0.00     0.053 A 
BRANCH  59  62
HETATM   62  O   UNK     0     151.259 148.088 168.128  0.00  0.00    -0.331 OA
HETATM   63  C   UNK     0     151.975 149.111 167.226  0.00  0.00     0.181 C 
ENDBRANCH  59  62
ENDBRANCH  16  55
BRANCH  28  64
HETATM   64  O   UNK     0     159.474 134.196 171.166  0.00  0.00    -0.333 OA
HETATM   65  C   UNK     0     159.011 132.961 171.960  0.00  0.00     0.181 C 
ENDBRANCH  28  64
TORSDOF 3
ENDMDL
MODEL 7
REMARK VINA RESULT:     -10.5     60.926     67.047
REMARK  3 active torsions:
REMARK  status: ('A' for Active; 'I' for Inactive)
REMARK    1  A    between atoms: C_16  and  C_21 
REMARK    2  A    between atoms: C_24  and  O_62 
REMARK    3  A    between atoms: C_34  and  O_35 
ROOT
HETATM    1  C   UNK     0     140.188 162.989 159.561  0.00  0.00     0.018 A 
HETATM    2  C   UNK     0     139.463 162.076 158.555  0.00  0.00     0.166 A 
HETATM    3  C   UNK     0     140.031 162.746 161.074  0.00  0.00     0.004 A 
HETATM    4  N   UNK     0     138.580 160.920 159.063  0.00  0.00    -0.347 N 
HETATM    5  C   UNK     0     139.148 161.591 161.580  0.00  0.00     0.024 A 
HETATM    6  C   UNK     0     138.423 160.678 160.575  0.00  0.00     0.099 A 
HETATM    7  C   UNK     0     139.620 162.318 157.042  0.00  0.00     0.281 C 
HETATM    8  O   UNK     0     138.895 161.405 156.037  0.00  0.00    -0.189 OA
HETATM    9  O   UNK     0     138.011 160.248 156.544  0.00  0.00    -0.196 OA
HETATM   10  C   UNK     0     137.855 160.007 158.056  0.00  0.00     0.265 A 
HETATM   11  C   UNK     0     136.971 158.851 158.563  0.00  0.00     0.231 A 
HETATM   12  O   UNK     0     136.814 158.609 160.076  0.00  0.00    -0.216 OA
HETATM   13  C   UNK     0     140.661 163.716 155.022  0.00  0.00     0.175 A 
HETATM   14  C   UNK     0     139.935 162.803 154.017  0.00  0.00     0.075 A 
HETATM   15  O   UNK     0     140.503 163.474 156.535  0.00  0.00    -0.336 OA
HETATM   16  C   UNK     0     141.701 165.113 153.003  0.00  0.00     0.065 A 
HETATM   17  O   UNK     0     140.975 164.200 151.997  0.00  0.00    -0.317 OA
HETATM   18  C   UNK     0     141.543 164.871 154.516  0.00  0.00    -0.008 A 
HETATM   19  C   UNK     0     140.092 163.044 152.504  0.00  0.00     0.072 A 
HETATM   20  C   UNK     0     142.269 165.785 155.521  0.00  0.00     0.030 C 
HETATM   21  O   UNK     0     136.403 158.179 156.045  0.00  0.00    -0.365 OA
HETATM   22  C   UNK     0     136.246 157.938 157.558  0.00  0.00     0.149 A 
HETATM   23  C   UNK     0     135.678 157.267 155.040  0.00  0.00     0.151 A 
HETATM   24  C   UNK     0     134.796 156.112 155.547  0.00  0.00     0.021 A 
HETATM   25  C   UNK     0     135.364 156.783 158.065  0.00  0.00     0.030 A 
HETATM   26  C   UNK     0     134.638 155.869 157.060  0.00  0.00     0.004 A 
HETATM   27  C   UNK     0     135.836 157.509 153.527  0.00  0.00     0.071 C 
HETATM   28  C   UNK     0     135.110 156.595 152.521  0.00  0.00     0.066 C 
HETATM   29  C   UNK     0     136.150 157.993 150.501  0.00  0.00     0.028 C 
HETATM   30  C   UNK     0     135.267 156.838 151.008  0.00  0.00    -0.025 C 
HETATM   31  C   UNK     0     134.542 155.924 150.003  0.00  0.00     0.028 C 
HETATM   32  C   UNK     0     135.206 156.541 159.578  0.00  0.00     0.003 C 
HETATM   33  C   UNK     0     139.366 162.131 151.498  0.00  0.00    -0.021 C 
HETATM   34  C   UNK     0     138.484 160.975 152.005  0.00  0.00     0.028 C 
HETATM   35  C   UNK     0     139.524 162.373 149.985  0.00  0.00     0.048 C 
HETATM   36  C   UNK     0     138.799 161.460 148.980  0.00  0.00    -0.012 C 
HETATM   37  C   UNK     0     137.916 160.304 149.487  0.00  0.00     0.029 C 
HETATM   38  C   UNK     0     138.956 161.702 147.467  0.00  0.00     0.148 C 
HETATM   39  C   UNK     0     138.231 160.789 146.461  0.00  0.00     0.144 A 
HETATM   40  O   UNK     0     137.348 159.633 146.969  0.00  0.00    -0.322 OA
HETATM   41  O   UNK     0     139.839 162.858 146.959  0.00  0.00    -0.189 OA
HETATM   42  C   UNK     0     138.388 161.031 144.948  0.00  0.00     0.151 A 
HETATM   43  C   UNK     0     134.677 156.138 148.475  0.00  0.00     0.030 C 
HETATM   44  C   UNK     0     133.834 155.077 147.306  0.00  0.00    -0.026 C 
HETATM   45  C   UNK     0     137.663 160.118 143.943  0.00  0.00     0.004 A 
HETATM   46  C   UNK     0     136.776 158.956 144.502  0.00  0.00     0.002 A 
HETATM   47  C   UNK     0     136.622 158.720 145.963  0.00  0.00     0.175 A 
HETATM   48  O   UNK     0     139.271 162.186 144.442  0.00  0.00    -0.188 OA
HETATM   49  C   UNK     0     133.990 155.314 145.923  0.00  0.00    -0.005 C 
HETATM   50  C   UNK     0     134.946 156.562 145.516  0.00  0.00    -0.005 C 
HETATM   51  C   UNK     0     135.608 157.451 144.231  0.00  0.00    -0.024 C 
HETATM   52  C   UNK     0     137.847 160.395 142.457  0.00  0.00     0.033 C 
HETATM   53  O   UNK     0     137.091 159.042 157.119  0.00  0.00     0.000 OA
HETATM   54  C   UNK     0     135.259 157.037 142.789  0.00  0.00     0.031 C 
ENDROOT
BRANCH  16  55
HETATM   55  C   UNK     0     142.584 166.269 152.495  0.00  0.00     0.072 A 
HETATM   56  C   UNK     0     141.978 167.671 152.297  0.00  0.00     0.007 A 
HETATM   57  C   UNK     0     142.861 168.827 151.790  0.00  0.00     0.056 A 
HETATM   58  C   UNK     0     144.350 168.580 151.481  0.00  0.00     0.127 A 
HETATM   59  C   UNK     0     144.955 167.178 151.679  0.00  0.00     0.093 A 
HETATM   60  O   UNK     0     145.232 169.736 150.974  0.00  0.00    -0.193 OA
HETATM   61  C   UNK     0     144.072 166.023 152.186  0.00  0.00     0.053 A 
BRANCH  59  62
HETATM   62  O   UNK     0     146.443 166.932 151.370  0.00  0.00    -0.331 OA
HETATM   63  C   UNK     0     146.926 165.521 150.983  0.00  0.00     0.181 C 
ENDBRANCH  59  62
ENDBRANCH  16  55
BRANCH  28  64
HETATM   64  O   UNK     0     134.227 155.440 153.028  0.00  0.00    -0.333 OA
HETATM   65  C   UNK     0     132.696 155.528 152.900  0.00  0.00     0.181 C 
ENDBRANCH  28  64
TORSDOF 3
ENDMDL
MODEL 8
REMARK VINA RESULT:     -10.5     50.304     58.017
REMARK  3 active torsions:
REMARK  status: ('A' for Active; 'I' for Inactive)
REMARK    1  A    between atoms: C_16  and  C_21 
REMARK    2  A    between atoms: C_24  and  O_62 
REMARK    3  A    between atoms: C_34  and  O_35 
ROOT
HETATM    1  C   UNK     0     141.792  99.993 165.992  0.00  0.00     0.018 A 
HETATM    2  C   UNK     0     141.757 100.899 164.748  0.00  0.00     0.166 A 
HETATM    3  C   UNK     0     141.849 100.618 167.399  0.00  0.00     0.004 A 
HETATM    4  N   UNK     0     141.780 102.431 164.910  0.00  0.00    -0.347 N 
HETATM    5  C   UNK     0     141.872 102.148 167.561  0.00  0.00     0.024 A 
HETATM    6  C   UNK     0     141.838 103.055 166.316  0.00  0.00     0.099 A 
HETATM    7  C   UNK     0     141.700 100.275 163.341  0.00  0.00     0.281 C 
HETATM    8  O   UNK     0     141.665 101.181 162.097  0.00  0.00    -0.189 OA
HETATM    9  O   UNK     0     141.688 102.713 162.259  0.00  0.00    -0.196 OA
HETATM   10  C   UNK     0     141.746 103.337 163.665  0.00  0.00     0.265 A 
HETATM   11  C   UNK     0     141.769 104.869 163.827  0.00  0.00     0.231 A 
HETATM   12  O   UNK     0     141.826 105.494 165.234  0.00  0.00    -0.216 OA
HETATM   13  C   UNK     0     141.620  98.118 161.772  0.00  0.00     0.175 A 
HETATM   14  C   UNK     0     141.585  99.025 160.528  0.00  0.00     0.075 A 
HETATM   15  O   UNK     0     141.677  98.743 163.179  0.00  0.00    -0.336 OA
HETATM   16  C   UNK     0     141.539  95.963 160.204  0.00  0.00     0.065 A 
HETATM   17  O   UNK     0     141.505  96.869 158.960  0.00  0.00    -0.317 OA
HETATM   18  C   UNK     0     141.597  96.587 161.611  0.00  0.00    -0.008 A 
HETATM   19  C   UNK     0     141.528  98.401 159.121  0.00  0.00     0.072 A 
HETATM   20  C   UNK     0     141.631  95.680 162.854  0.00  0.00     0.030 C 
HETATM   21  O   UNK     0     141.677 105.152 161.177  0.00  0.00    -0.365 OA
HETATM   22  C   UNK     0     141.734 105.775 162.583  0.00  0.00     0.149 A 
HETATM   23  C   UNK     0     141.642 106.058 159.933  0.00  0.00     0.151 A 
HETATM   24  C   UNK     0     141.665 107.588 160.095  0.00  0.00     0.021 A 
HETATM   25  C   UNK     0     141.757 107.307 162.746  0.00  0.00     0.030 A 
HETATM   26  C   UNK     0     141.723 108.213 161.501  0.00  0.00     0.004 A 
HETATM   27  C   UNK     0     141.585 105.433 158.526  0.00  0.00     0.071 C 
HETATM   28  C   UNK     0     141.550 106.340 157.281  0.00  0.00     0.066 C 
HETATM   29  C   UNK     0     141.470 104.184 155.712  0.00  0.00     0.028 C 
HETATM   30  C   UNK     0     141.493 105.715 155.875  0.00  0.00    -0.025 C 
HETATM   31  C   UNK     0     141.458 106.622 154.630  0.00  0.00     0.028 C 
HETATM   32  C   UNK     0     141.814 107.931 164.152  0.00  0.00     0.003 C 
HETATM   33  C   UNK     0     141.493  99.308 157.877  0.00  0.00    -0.021 C 
HETATM   34  C   UNK     0     141.516 100.839 158.039  0.00  0.00     0.028 C 
HETATM   35  C   UNK     0     141.436  98.683 156.470  0.00  0.00     0.048 C 
HETATM   36  C   UNK     0     141.401  99.590 155.226  0.00  0.00    -0.012 C 
HETATM   37  C   UNK     0     141.424 101.121 155.388  0.00  0.00     0.029 C 
HETATM   38  C   UNK     0     141.344  98.965 153.819  0.00  0.00     0.148 C 
HETATM   39  C   UNK     0     141.309  99.872 152.575  0.00  0.00     0.144 A 
HETATM   40  O   UNK     0     141.332 101.403 152.737  0.00  0.00    -0.322 OA
HETATM   41  O   UNK     0     141.321  97.433 153.657  0.00  0.00    -0.189 OA
HETATM   42  C   UNK     0     141.252  99.247 151.168  0.00  0.00     0.151 A 
HETATM   43  C   UNK     0     141.401 106.028 153.201  0.00  0.00     0.030 C 
HETATM   44  C   UNK     0     141.360 107.082 151.755  0.00  0.00    -0.026 C 
HETATM   45  C   UNK     0     141.218 100.153 149.924  0.00  0.00     0.004 A 
HETATM   46  C   UNK     0     141.242 101.703 150.135  0.00  0.00     0.002 A 
HETATM   47  C   UNK     0     141.298 102.310 151.493  0.00  0.00     0.175 A 
HETATM   48  O   UNK     0     141.229  97.716 151.006  0.00  0.00    -0.188 OA
HETATM   49  C   UNK     0     141.308 106.492 150.473  0.00  0.00    -0.005 C 
HETATM   50  C   UNK     0     141.288 104.869 150.435  0.00  0.00    -0.005 C 
HETATM   51  C   UNK     0     141.237 103.497 149.437  0.00  0.00    -0.024 C 
HETATM   52  C   UNK     0     141.161  99.492 148.554  0.00  0.00     0.033 C 
HETATM   53  O   UNK     0     141.714 104.322 162.473  0.00  0.00     0.000 OA
HETATM   54  C   UNK     0     141.185 103.696 147.910  0.00  0.00     0.031 C 
ENDROOT
BRANCH  16  55
HETATM   55  C   UNK     0     141.517  94.431 160.042  0.00  0.00     0.072 A 
HETATM   56  C   UNK     0     142.839  93.646 159.955  0.00  0.00     0.007 A 
HETATM   57  C   UNK     0     142.816  92.115 159.793  0.00  0.00     0.056 A 
HETATM   58  C   UNK     0     141.471  91.368 159.717  0.00  0.00     0.127 A 
HETATM   59  C   UNK     0     140.149  92.153 159.803  0.00  0.00     0.093 A 
HETATM   60  O   UNK     0     141.448  89.837 159.555  0.00  0.00    -0.193 OA
HETATM   61  C   UNK     0     140.171  93.684 159.966  0.00  0.00     0.053 A 
BRANCH  59  62
HETATM   62  O   UNK     0     138.804  91.407 159.727  0.00  0.00    -0.331 OA
HETATM   63  C   UNK     0     137.641  91.997 158.907  0.00  0.00     0.181 C 
ENDBRANCH  59  62
ENDBRANCH  16  55
BRANCH  28  64
HETATM   64  O   UNK     0     141.573 107.872 157.443  0.00  0.00    -0.333 OA
HETATM   65  C   UNK     0     142.831 108.668 157.052  0.00  0.00     0.181 C 
ENDBRANCH  28  64
TORSDOF 3
ENDMDL
MODEL 9
REMARK VINA RESULT:     -10.3     59.673     66.847
REMARK  3 active torsions:
REMARK  status: ('A' for Active; 'I' for Inactive)
REMARK    1  A    between atoms: C_16  and  C_21 
REMARK    2  A    between atoms: C_24  and  O_62 
REMARK    3  A    between atoms: C_34  and  O_35 
ROOT
HETATM    1  C   UNK     0     146.899  99.335 172.839  0.00  0.00     0.018 A 
HETATM    2  C   UNK     0     146.845 100.856 173.073  0.00  0.00     0.166 A 
HETATM    3  C   UNK     0     147.629  98.426 173.846  0.00  0.00     0.004 A 
HETATM    4  N   UNK     0     147.521 101.469 174.314  0.00  0.00    -0.347 N 
HETATM    5  C   UNK     0     148.305  99.039 175.086  0.00  0.00     0.024 A 
HETATM    6  C   UNK     0     148.251 100.560 175.320  0.00  0.00     0.099 A 
HETATM    7  C   UNK     0     146.115 101.765 172.067  0.00  0.00     0.281 C 
HETATM    8  O   UNK     0     146.061 103.286 172.301  0.00  0.00    -0.189 OA
HETATM    9  O   UNK     0     146.738 103.900 173.542  0.00  0.00    -0.196 OA
HETATM   10  C   UNK     0     147.467 102.990 174.548  0.00  0.00     0.265 A 
HETATM   11  C   UNK     0     148.143 103.603 175.789  0.00  0.00     0.231 A 
HETATM   12  O   UNK     0     148.873 102.694 176.796  0.00  0.00    -0.216 OA
HETATM   13  C   UNK     0     144.709 102.062 169.819  0.00  0.00     0.175 A 
HETATM   14  C   UNK     0     144.655 103.583 170.053  0.00  0.00     0.075 A 
HETATM   15  O   UNK     0     145.439 101.153 170.825  0.00  0.00    -0.336 OA
HETATM   16  C   UNK     0     143.303 102.359 167.572  0.00  0.00     0.065 A 
HETATM   17  O   UNK     0     143.250 103.880 167.806  0.00  0.00    -0.317 OA
HETATM   18  C   UNK     0     144.033 101.450 168.578  0.00  0.00    -0.008 A 
HETATM   19  C   UNK     0     143.926 104.493 169.048  0.00  0.00     0.072 A 
HETATM   20  C   UNK     0     144.087  99.929 168.343  0.00  0.00     0.030 C 
HETATM   21  O   UNK     0     147.360 106.033 175.018  0.00  0.00    -0.365 OA
HETATM   22  C   UNK     0     148.090 105.123 176.024  0.00  0.00     0.149 A 
HETATM   23  C   UNK     0     147.306 107.553 175.252  0.00  0.00     0.151 A 
HETATM   24  C   UNK     0     147.982 108.165 176.493  0.00  0.00     0.021 A 
HETATM   25  C   UNK     0     148.766 105.735 177.265  0.00  0.00     0.030 A 
HETATM   26  C   UNK     0     148.712 107.256 177.499  0.00  0.00     0.004 A 
HETATM   27  C   UNK     0     146.576 108.462 174.246  0.00  0.00     0.071 C 
HETATM   28  C   UNK     0     146.522 109.984 174.480  0.00  0.00     0.066 C 
HETATM   29  C   UNK     0     145.116 110.281 172.232  0.00  0.00     0.028 C 
HETATM   30  C   UNK     0     145.792 110.893 173.473  0.00  0.00    -0.025 C 
HETATM   31  C   UNK     0     145.739 112.414 173.708  0.00  0.00     0.028 C 
HETATM   32  C   UNK     0     149.495 104.826 178.271  0.00  0.00     0.003 C 
HETATM   33  C   UNK     0     143.872 106.014 169.282  0.00  0.00    -0.021 C 
HETATM   34  C   UNK     0     144.548 106.626 170.522  0.00  0.00     0.028 C 
HETATM   35  C   UNK     0     143.142 106.923 168.275  0.00  0.00     0.048 C 
HETATM   36  C   UNK     0     143.088 108.444 168.510  0.00  0.00    -0.012 C 
HETATM   37  C   UNK     0     143.764 109.056 169.751  0.00  0.00     0.029 C 
HETATM   38  C   UNK     0     142.358 109.353 167.503  0.00  0.00     0.148 C 
HETATM   39  C   UNK     0     142.304 110.874 167.737  0.00  0.00     0.144 A 
HETATM   40  O   UNK     0     142.981 111.486 168.979  0.00  0.00    -0.322 OA
HETATM   41  O   UNK     0     141.682 108.741 166.262  0.00  0.00    -0.189 OA
HETATM   42  C   UNK     0     141.574 111.783 166.731  0.00  0.00     0.151 A 
HETATM   43  C   UNK     0     145.014 113.358 172.717  0.00  0.00     0.030 C 
HETATM   44  C   UNK     0     144.951 115.125 172.989  0.00  0.00    -0.026 C 
HETATM   45  C   UNK     0     141.521 113.304 166.965  0.00  0.00     0.004 A 
HETATM   46  C   UNK     0     142.221 113.883 168.239  0.00  0.00     0.002 A 
HETATM   47  C   UNK     0     142.927 113.007 169.213  0.00  0.00     0.175 A 
HETATM   48  O   UNK     0     140.899 111.171 165.490  0.00  0.00    -0.188 OA
HETATM   49  C   UNK     0     144.278 115.944 172.056  0.00  0.00    -0.005 C 
HETATM   50  C   UNK     0     143.606 115.179 170.791  0.00  0.00    -0.005 C 
HETATM   51  C   UNK     0     142.712 115.367 169.361  0.00  0.00    -0.024 C 
HETATM   52  C   UNK     0     140.788 114.164 165.944  0.00  0.00     0.033 C 
HETATM   53  O   UNK     0     147.463 104.504 174.862  0.00  0.00     0.000 OA
HETATM   54  C   UNK     0     142.275 116.785 168.944  0.00  0.00     0.031 C 
ENDROOT
BRANCH  16  55
HETATM   55  C   UNK     0     142.627 101.747 166.331  0.00  0.00     0.072 A 
HETATM   56  C   UNK     0     141.206 101.163 166.437  0.00  0.00     0.007 A 
HETATM   57  C   UNK     0     140.530 100.550 165.196  0.00  0.00     0.056 A 
HETATM   58  C   UNK     0     141.275 100.522 163.848  0.00  0.00     0.127 A 
HETATM   59  C   UNK     0     142.696 101.106 163.742  0.00  0.00     0.093 A 
HETATM   60  O   UNK     0     140.598  99.910 162.608  0.00  0.00    -0.193 OA
HETATM   61  C   UNK     0     143.372 101.718 164.983  0.00  0.00     0.053 A 
BRANCH  59  62
HETATM   62  O   UNK     0     143.440 101.078 162.395  0.00  0.00    -0.331 OA
HETATM   63  C   UNK     0     143.070 102.084 161.289  0.00  0.00     0.181 C 
ENDBRANCH  59  62
ENDBRANCH  16  55
BRANCH  28  64
HETATM   64  O   UNK     0     147.199 110.596 175.721  0.00  0.00    -0.333 OA
HETATM   65  C   UNK     0     146.341 111.098 176.896  0.00  0.00     0.181 C 
ENDBRANCH  28  64
TORSDOF 3
ENDMDL
MODEL 10
REMARK VINA RESULT:     -10.3     36.876     42.458
REMARK  3 active torsions:
REMARK  status: ('A' for Active; 'I' for Inactive)
REMARK    1  A    between atoms: C_16  and  C_21 
REMARK    2  A    between atoms: C_24  and  O_62 
REMARK    3  A    between atoms: C_34  and  O_35 
ROOT
HETATM    1  C   UNK     0     155.016 153.947 103.800  0.00  0.00     0.018 A 
HETATM    2  C   UNK     0     154.874 154.789 105.081  0.00  0.00     0.166 A 
HETATM    3  C   UNK     0     153.759 153.472 103.047  0.00  0.00     0.004 A 
HETATM    4  N   UNK     0     153.474 155.156 105.610  0.00  0.00    -0.347 N 
HETATM    5  C   UNK     0     152.360 153.840 103.575  0.00  0.00     0.024 A 
HETATM    6  C   UNK     0     152.218 154.682 104.857  0.00  0.00     0.099 A 
HETATM    7  C   UNK     0     156.131 155.264 105.834  0.00  0.00     0.281 C 
HETATM    8  O   UNK     0     155.988 156.106 107.116  0.00  0.00    -0.189 OA
HETATM    9  O   UNK     0     154.589 156.474 107.645  0.00  0.00    -0.196 OA
HETATM   10  C   UNK     0     153.333 155.999 106.891  0.00  0.00     0.265 A 
HETATM   11  C   UNK     0     151.934 156.366 107.421  0.00  0.00     0.231 A 
HETATM   12  O   UNK     0     150.676 155.892 106.668  0.00  0.00    -0.216 OA
HETATM   13  C   UNK     0     158.787 155.371 106.058  0.00  0.00     0.175 A 
HETATM   14  C   UNK     0     158.645 156.213 107.340  0.00  0.00     0.075 A 
HETATM   15  O   UNK     0     157.530 154.897 105.305  0.00  0.00    -0.336 OA
HETATM   16  C   UNK     0     161.442 155.479 106.282  0.00  0.00     0.065 A 
HETATM   17  O   UNK     0     161.300 156.321 107.564  0.00  0.00    -0.317 OA
HETATM   18  C   UNK     0     160.185 155.004 105.530  0.00  0.00    -0.008 A 
HETATM   19  C   UNK     0     159.901 156.689 108.094  0.00  0.00     0.072 A 
HETATM   20  C   UNK     0     160.329 154.162 104.248  0.00  0.00     0.030 C 
HETATM   21  O   UNK     0     153.047 157.683 109.455  0.00  0.00    -0.365 OA
HETATM   22  C   UNK     0     151.791 157.208 108.702  0.00  0.00     0.149 A 
HETATM   23  C   UNK     0     152.905 158.525 110.736  0.00  0.00     0.151 A 
HETATM   24  C   UNK     0     151.507 158.892 111.265  0.00  0.00     0.021 A 
HETATM   25  C   UNK     0     150.392 157.575 109.230  0.00  0.00     0.030 A 
HETATM   26  C   UNK     0     150.250 158.417 110.512  0.00  0.00     0.004 A 
HETATM   27  C   UNK     0     154.162 158.999 111.489  0.00  0.00     0.071 C 
HETATM   28  C   UNK     0     154.020 159.842 112.771  0.00  0.00     0.066 C 
HETATM   29  C   UNK     0     156.676 159.949 112.996  0.00  0.00     0.028 C 
HETATM   30  C   UNK     0     155.277 160.317 113.524  0.00  0.00    -0.025 C 
HETATM   31  C   UNK     0     155.135 161.159 114.806  0.00  0.00     0.028 C 
HETATM   32  C   UNK     0     149.136 157.100 108.478  0.00  0.00     0.003 C 
HETATM   33  C   UNK     0     159.758 157.531 109.375  0.00  0.00    -0.021 C 
HETATM   34  C   UNK     0     158.360 157.898 109.904  0.00  0.00     0.028 C 
HETATM   35  C   UNK     0     161.015 158.005 110.128  0.00  0.00     0.048 C 
HETATM   36  C   UNK     0     160.873 158.847 111.410  0.00  0.00    -0.012 C 
HETATM   37  C   UNK     0     159.474 159.215 111.938  0.00  0.00     0.029 C 
HETATM   38  C   UNK     0     162.130 159.322 112.162  0.00  0.00     0.148 C 
HETATM   39  C   UNK     0     161.988 160.164 113.444  0.00  0.00     0.144 A 
HETATM   40  O   UNK     0     160.589 160.531 113.973  0.00  0.00    -0.322 OA
HETATM   41  O   UNK     0     163.530 158.955 111.634  0.00  0.00    -0.189 OA
HETATM   42  C   UNK     0     163.245 160.639 114.197  0.00  0.00     0.151 A 
HETATM   43  C   UNK     0     156.376 161.653 115.588  0.00  0.00     0.030 C 
HETATM   44  C   UNK     0     156.211 162.631 117.077  0.00  0.00    -0.026 C 
HETATM   45  C   UNK     0     163.103 161.481 115.478  0.00  0.00     0.004 A 
HETATM   46  C   UNK     0     161.662 161.831 115.979  0.00  0.00     0.002 A 
HETATM   47  C   UNK     0     160.446 161.373 115.254  0.00  0.00     0.175 A 
HETATM   48  O   UNK     0     164.643 160.272 113.668  0.00  0.00    -0.188 OA
HETATM   49  C   UNK     0     157.374 163.058 117.755  0.00  0.00    -0.005 C 
HETATM   50  C   UNK     0     158.789 162.606 117.097  0.00  0.00    -0.005 C 
HETATM   51  C   UNK     0     160.478 162.675 117.240  0.00  0.00    -0.024 C 
HETATM   52  C   UNK     0     164.373 161.928 116.190  0.00  0.00     0.033 C 
HETATM   53  O   UNK     0     153.097 156.839 108.168  0.00  0.00     0.000 OA
HETATM   54  C   UNK     0     161.089 163.444 118.427  0.00  0.00     0.031 C 
ENDROOT
BRANCH  16  55
HETATM   55  C   UNK     0     162.842 155.112 105.754  0.00  0.00     0.072 A 
HETATM   56  C   UNK     0     163.314 153.646 105.779  0.00  0.00     0.007 A 
HETATM   57  C   UNK     0     164.713 153.279 105.250  0.00  0.00     0.056 A 
HETATM   58  C   UNK     0     165.640 154.377 104.697  0.00  0.00     0.127 A 
HETATM   59  C   UNK     0     165.168 155.843 104.672  0.00  0.00     0.093 A 
HETATM   60  O   UNK     0     167.039 154.009 104.168  0.00  0.00    -0.193 OA
HETATM   61  C   UNK     0     163.769 156.210 105.200  0.00  0.00     0.053 A 
BRANCH  59  62
HETATM   62  O   UNK     0     166.094 156.941 104.118  0.00  0.00    -0.331 OA
HETATM   63  C   UNK     0     167.074 157.667 105.059  0.00  0.00     0.181 C 
ENDBRANCH  59  62
ENDBRANCH  16  55
BRANCH  28  64
HETATM   64  O   UNK     0     152.621 160.209 113.300  0.00  0.00    -0.333 OA
HETATM   65  C   UNK     0     152.088 159.555 114.587  0.00  0.00     0.181 C 
ENDBRANCH  28  64
TORSDOF 3
ENDMDL
