MODEL 1
REMARK VINA RESULT:      -8.4      0.000      0.000
REMARK  2 active torsions:
REMARK  status: ('A' for Active; 'I' for Inactive)
REMARK    1  A    between atoms: S_1  and  O_7 
REMARK    2  A    between atoms: O_7  and  C_18 
ROOT
HETATM    1  O   UNK     0     156.636 115.886 121.242  0.00  0.00    -0.342 OA
HETATM    2  O   UNK     0     158.905 115.254 118.085  0.00  0.00     0.000 OA
HETATM    3  O   UNK     0     156.227 115.132 118.916  0.00  0.00    -0.329 OA
HETATM    4  O   UNK     0     159.977 116.672 122.314  0.00  0.00    -0.343 OA
HETATM    5  O   UNK     0     161.869 116.459 120.729  0.00  0.00    -0.344 OA
HETATM    6  C   UNK     0     157.983 115.855 120.514  0.00  0.00     0.202 A 
HETATM    7  C   UNK     0     159.414 116.192 120.974  0.00  0.00     0.187 A 
HETATM    8  C   UNK     0     157.729 115.387 119.070  0.00  0.00     0.185 A 
HETATM    9  C   UNK     0     160.590 116.060 119.989  0.00  0.00     0.168 A 
HETATM   10  C   UNK     0     160.336 115.591 118.544  0.00  0.00     0.024 A 
HETATM   11  C   UNK     0     155.554 115.440 120.257  0.00  0.00     0.187 A 
HETATM   12  C   UNK     0     161.491 116.837 122.163  0.00  0.00     0.186 A 
HETATM   13  C   UNK     0     157.474 114.918 117.625  0.00  0.00     0.143 A 
HETATM   14  C   UNK     0     154.186 115.069 119.654  0.00  0.00     0.061 C 
HETATM   15  C   UNK     0     154.485 115.620 121.351  0.00  0.00     0.061 C 
HETATM   16  C   UNK     0     161.587 117.291 123.632  0.00  0.00     0.061 C 
HETATM   17  C   UNK     0     162.970 117.135 122.474  0.00  0.00     0.061 C 
ENDROOT
BRANCH  13  18
HETATM   18  O   UNK     0     156.043 114.581 117.166  0.00  0.00    -0.212 OA
BRANCH  18  19
HETATM   19  S   UNK     0     155.820 113.706 115.918  0.00  0.00     0.406 S 
HETATM   20  O   UNK     0     155.232 112.592 116.804  0.00  0.00    -0.172 OA
HETATM   21  O   UNK     0     156.409 114.820 115.032  0.00  0.00    -0.172 OA
HETATM   22  N   UNK     0     155.598 112.832 114.670  0.00  0.00    -0.021 N 
ENDBRANCH  18  19
ENDBRANCH  13  18
TORSDOF 2
ENDMDL
MODEL 2
REMARK VINA RESULT:      -8.3     37.453     37.998
REMARK  2 active torsions:
REMARK  status: ('A' for Active; 'I' for Inactive)
REMARK    1  A    between atoms: S_1  and  O_7 
REMARK    2  A    between atoms: O_7  and  C_18 
ROOT
HETATM    1  O   UNK     0     147.095 150.606 118.248  0.00  0.00    -0.342 OA
HETATM    2  O   UNK     0     148.075 152.489 114.930  0.00  0.00     0.000 OA
HETATM    3  O   UNK     0     147.416 149.932 115.884  0.00  0.00    -0.329 OA
HETATM    4  O   UNK     0     147.554 154.037 119.217  0.00  0.00    -0.343 OA
HETATM    5  O   UNK     0     148.192 155.729 117.522  0.00  0.00    -0.344 OA
HETATM    6  C   UNK     0     147.480 151.856 117.452  0.00  0.00     0.202 A 
HETATM    7  C   UNK     0     147.676 153.326 117.867  0.00  0.00     0.187 A 
HETATM    8  C   UNK     0     147.679 151.437 115.984  0.00  0.00     0.185 A 
HETATM    9  C   UNK     0     148.073 154.377 116.814  0.00  0.00     0.168 A 
HETATM   10  C   UNK     0     148.272 153.958 115.345  0.00  0.00     0.024 A 
HETATM   11  C   UNK     0     147.056 149.420 117.282  0.00  0.00     0.187 A 
HETATM   12  C   UNK     0     147.872 155.520 119.004  0.00  0.00     0.186 A 
HETATM   13  C   UNK     0     147.878 151.018 114.515  0.00  0.00     0.143 A 
HETATM   14  C   UNK     0     146.896 147.996 116.717  0.00  0.00     0.061 C 
HETATM   15  C   UNK     0     146.661 148.488 118.443  0.00  0.00     0.061 C 
HETATM   16  C   UNK     0     147.638 155.784 120.503  0.00  0.00     0.061 C 
HETATM   17  C   UNK     0     148.104 157.020 119.265  0.00  0.00     0.061 C 
ENDROOT
BRANCH  13  18
HETATM   18  O   UNK     0     147.682 149.548 114.100  0.00  0.00    -0.212 OA
BRANCH  18  19
HETATM   19  S   UNK     0     148.243 149.046 112.756  0.00  0.00     0.406 S 
HETATM   20  O   UNK     0     147.222 149.919 112.003  0.00  0.00    -0.172 OA
HETATM   21  O   UNK     0     149.263 148.172 113.510  0.00  0.00    -0.172 OA
HETATM   22  N   UNK     0     148.804 148.543 111.414  0.00  0.00    -0.021 N 
ENDBRANCH  18  19
ENDBRANCH  13  18
TORSDOF 2
ENDMDL
MODEL 3
REMARK VINA RESULT:      -8.0     49.742     51.741
REMARK  2 active torsions:
REMARK  status: ('A' for Active; 'I' for Inactive)
REMARK    1  A    between atoms: S_1  and  O_7 
REMARK    2  A    between atoms: O_7  and  C_18 
ROOT
HETATM    1  O   UNK     0     141.897 113.927 168.201  0.00  0.00    -0.342 OA
HETATM    2  O   UNK     0     144.004 110.692 168.982  0.00  0.00     0.000 OA
HETATM    3  O   UNK     0     142.159 111.708 167.127  0.00  0.00    -0.329 OA
HETATM    4  O   UNK     0     143.730 114.701 171.195  0.00  0.00    -0.343 OA
HETATM    5  O   UNK     0     145.255 113.017 172.184  0.00  0.00    -0.344 OA
HETATM    6  C   UNK     0     142.893 113.116 169.034  0.00  0.00     0.202 A 
HETATM    7  C   UNK     0     143.679 113.448 170.317  0.00  0.00     0.187 A 
HETATM    8  C   UNK     0     143.056 111.738 168.367  0.00  0.00     0.185 A 
HETATM    9  C   UNK     0     144.627 112.402 170.932  0.00  0.00     0.168 A 
HETATM   10  C   UNK     0     144.789 111.023 170.264  0.00  0.00     0.024 A 
HETATM   11  C   UNK     0     141.444 113.059 167.025  0.00  0.00     0.187 A 
HETATM   12  C   UNK     0     144.703 114.436 172.347  0.00  0.00     0.186 A 
HETATM   13  C   UNK     0     143.218 110.360 167.700  0.00  0.00     0.143 A 
HETATM   14  C   UNK     0     140.730 112.582 165.746  0.00  0.00     0.061 C 
HETATM   15  C   UNK     0     140.539 114.202 166.530  0.00  0.00     0.061 C 
HETATM   16  C   UNK     0     144.437 115.850 172.896  0.00  0.00     0.061 C 
HETATM   17  C   UNK     0     145.551 114.620 173.619  0.00  0.00     0.061 C 
ENDROOT
BRANCH  13  18
HETATM   18  O   UNK     0     142.433 110.028 166.417  0.00  0.00    -0.212 OA
BRANCH  18  19
HETATM   19  S   UNK     0     142.129 108.561 166.058  0.00  0.00     0.406 S 
HETATM   20  O   UNK     0     142.470 108.137 167.499  0.00  0.00    -0.172 OA
HETATM   21  O   UNK     0     141.788 108.985 164.617  0.00  0.00    -0.172 OA
HETATM   22  N   UNK     0     141.825 107.095 165.698  0.00  0.00    -0.021 N 
ENDBRANCH  18  19
ENDBRANCH  13  18
TORSDOF 2
ENDMDL
MODEL 4
REMARK VINA RESULT:      -8.0     39.735     40.521
REMARK  2 active torsions:
REMARK  status: ('A' for Active; 'I' for Inactive)
REMARK    1  A    between atoms: S_1  and  O_7 
REMARK    2  A    between atoms: O_7  and  C_18 
ROOT
HETATM    1  O   UNK     0     148.475 153.629 117.305  0.00  0.00    -0.342 OA
HETATM    2  O   UNK     0     144.919 153.969 115.645  0.00  0.00     0.000 OA
HETATM    3  O   UNK     0     146.405 154.884 117.843  0.00  0.00    -0.329 OA
HETATM    4  O   UNK     0     148.595 151.528 114.390  0.00  0.00    -0.343 OA
HETATM    5  O   UNK     0     146.610 151.335 112.919  0.00  0.00    -0.344 OA
HETATM    6  C   UNK     0     147.437 153.309 116.225  0.00  0.00     0.202 A 
HETATM    7  C   UNK     0     147.489 152.409 114.976  0.00  0.00     0.187 A 
HETATM    8  C   UNK     0     146.152 154.089 116.559  0.00  0.00     0.185 A 
HETATM    9  C   UNK     0     146.256 152.289 114.062  0.00  0.00     0.168 A 
HETATM   10  C   UNK     0     144.970 153.070 114.397  0.00  0.00     0.024 A 
HETATM   11  C   UNK     0     147.838 154.600 118.302  0.00  0.00     0.187 A 
HETATM   12  C   UNK     0     148.053 150.866 113.121  0.00  0.00     0.186 A 
HETATM   13  C   UNK     0     144.867 154.869 116.894  0.00  0.00     0.143 A 
HETATM   14  C   UNK     0     147.635 155.535 119.509  0.00  0.00     0.061 C 
HETATM   15  C   UNK     0     149.145 154.618 119.117  0.00  0.00     0.061 C 
HETATM   16  C   UNK     0     149.402 150.151 112.919  0.00  0.00     0.061 C 
HETATM   17  C   UNK     0     147.953 150.010 111.844  0.00  0.00     0.061 C 
ENDROOT
BRANCH  13  18
HETATM   18  O   UNK     0     144.815 155.769 118.142  0.00  0.00    -0.212 OA
BRANCH  18  19
HETATM   19  S   UNK     0     143.551 155.794 119.023  0.00  0.00     0.406 S 
HETATM   20  O   UNK     0     144.408 156.181 120.242  0.00  0.00    -0.172 OA
HETATM   21  O   UNK     0     142.694 155.406 117.803  0.00  0.00    -0.172 OA
HETATM   22  N   UNK     0     142.288 155.818 119.902  0.00  0.00    -0.021 N 
ENDBRANCH  18  19
ENDBRANCH  13  18
TORSDOF 2
ENDMDL
MODEL 5
REMARK VINA RESULT:      -7.8     51.387     53.651
REMARK  2 active torsions:
REMARK  status: ('A' for Active; 'I' for Inactive)
REMARK    1  A    between atoms: S_1  and  O_7 
REMARK    2  A    between atoms: O_7  and  C_18 
ROOT
HETATM    1  O   UNK     0     143.667 114.783 171.130  0.00  0.00    -0.342 OA
HETATM    2  O   UNK     0     144.669 111.055 170.347  0.00  0.00     0.000 OA
HETATM    3  O   UNK     0     145.144 113.106 172.204  0.00  0.00    -0.329 OA
HETATM    4  O   UNK     0     141.867 113.936 168.135  0.00  0.00    -0.343 OA
HETATM    5  O   UNK     0     142.102 111.676 167.145  0.00  0.00    -0.344 OA
HETATM    6  C   UNK     0     143.605 113.500 170.296  0.00  0.00     0.202 A 
HETATM    7  C   UNK     0     142.834 113.137 169.013  0.00  0.00     0.187 A 
HETATM    8  C   UNK     0     144.522 112.459 170.963  0.00  0.00     0.185 A 
HETATM    9  C   UNK     0     142.980 111.733 168.398  0.00  0.00     0.168 A 
HETATM   10  C   UNK     0     143.898 110.692 169.065  0.00  0.00     0.024 A 
HETATM   11  C   UNK     0     144.615 114.540 172.306  0.00  0.00     0.187 A 
HETATM   12  C   UNK     0     141.415 113.035 166.983  0.00  0.00     0.186 A 
HETATM   13  C   UNK     0     145.440 111.417 171.630  0.00  0.00     0.143 A 
HETATM   14  C   UNK     0     145.447 114.753 173.585  0.00  0.00     0.061 C 
HETATM   15  C   UNK     0     144.369 115.977 172.801  0.00  0.00     0.061 C 
HETATM   16  C   UNK     0     140.540 114.177 166.434  0.00  0.00     0.061 C 
HETATM   17  C   UNK     0     140.712 112.527 165.711  0.00  0.00     0.061 C 
ENDROOT
BRANCH  13  18
HETATM   18  O   UNK     0     146.211 111.780 172.913  0.00  0.00    -0.212 OA
BRANCH  18  19
HETATM   19  S   UNK     0     146.531 110.690 173.954  0.00  0.00     0.406 S 
HETATM   20  O   UNK     0     145.504 109.754 173.289  0.00  0.00    -0.172 OA
HETATM   21  O   UNK     0     147.557 111.627 174.620  0.00  0.00    -0.172 OA
HETATM   22  N   UNK     0     146.850 109.602 174.995  0.00  0.00    -0.021 N 
ENDBRANCH  18  19
ENDBRANCH  13  18
TORSDOF 2
ENDMDL
MODEL 6
REMARK VINA RESULT:      -7.7     50.127     51.921
REMARK  2 active torsions:
REMARK  status: ('A' for Active; 'I' for Inactive)
REMARK    1  A    between atoms: S_1  and  O_7 
REMARK    2  A    between atoms: O_7  and  C_18 
ROOT
HETATM    1  O   UNK     0     141.406 112.513 166.901  0.00  0.00    -0.342 OA
HETATM    2  O   UNK     0     143.983 111.301 169.622  0.00  0.00     0.000 OA
HETATM    3  O   UNK     0     142.545 113.578 168.828  0.00  0.00    -0.329 OA
HETATM    4  O   UNK     0     142.030 109.058 166.129  0.00  0.00    -0.343 OA
HETATM    5  O   UNK     0     143.599 107.740 167.523  0.00  0.00    -0.344 OA
HETATM    6  C   UNK     0     142.300 111.459 167.559  0.00  0.00     0.202 A 
HETATM    7  C   UNK     0     142.567 109.978 167.228  0.00  0.00     0.187 A 
HETATM    8  C   UNK     0     143.008 112.119 168.755  0.00  0.00     0.185 A 
HETATM    9  C   UNK     0     143.542 109.159 168.094  0.00  0.00     0.168 A 
HETATM   10  C   UNK     0     144.250 109.821 169.291  0.00  0.00     0.024 A 
HETATM   11  C   UNK     0     141.557 113.819 167.684  0.00  0.00     0.187 A 
HETATM   12  C   UNK     0     142.666 107.677 166.312  0.00  0.00     0.186 A 
HETATM   13  C   UNK     0     143.716 112.781 169.953  0.00  0.00     0.143 A 
HETATM   14  C   UNK     0     141.392 115.282 168.137  0.00  0.00     0.061 C 
HETATM   15  C   UNK     0     140.560 114.505 166.730  0.00  0.00     0.061 C 
HETATM   16  C   UNK     0     141.887 107.158 165.089  0.00  0.00     0.061 C 
HETATM   17  C   UNK     0     143.033 106.196 166.107  0.00  0.00     0.061 C 
ENDROOT
BRANCH  13  18
HETATM   18  O   UNK     0     143.449 114.262 170.283  0.00  0.00    -0.212 OA
BRANCH  18  19
HETATM   19  S   UNK     0     144.083 114.898 171.534  0.00  0.00     0.406 S 
HETATM   20  O   UNK     0     144.466 113.499 172.052  0.00  0.00    -0.172 OA
HETATM   21  O   UNK     0     143.700 116.297 171.017  0.00  0.00    -0.172 OA
HETATM   22  N   UNK     0     144.717 115.535 172.785  0.00  0.00    -0.021 N 
ENDBRANCH  18  19
ENDBRANCH  13  18
TORSDOF 2
ENDMDL
MODEL 7
REMARK VINA RESULT:      -7.6      3.198      5.618
REMARK  2 active torsions:
REMARK  status: ('A' for Active; 'I' for Inactive)
REMARK    1  A    between atoms: S_1  and  O_7 
REMARK    2  A    between atoms: O_7  and  C_18 
ROOT
HETATM    1  O   UNK     0     154.993 114.318 117.324  0.00  0.00    -0.342 OA
HETATM    2  O   UNK     0     157.999 115.013 119.773  0.00  0.00     0.000 OA
HETATM    3  O   UNK     0     157.447 113.979 117.222  0.00  0.00    -0.329 OA
HETATM    4  O   UNK     0     153.499 115.763 120.258  0.00  0.00    -0.343 OA
HETATM    5  O   UNK     0     154.922 116.420 122.177  0.00  0.00    -0.344 OA
HETATM    6  C   UNK     0     155.591 114.815 118.643  0.00  0.00     0.202 A 
HETATM    7  C   UNK     0     154.951 115.434 119.900  0.00  0.00     0.187 A 
HETATM    8  C   UNK     0     157.115 114.605 118.580  0.00  0.00     0.185 A 
HETATM    9  C   UNK     0     155.835 115.842 121.093  0.00  0.00     0.168 A 
HETATM   10  C   UNK     0     157.359 115.632 121.029  0.00  0.00     0.024 A 
HETATM   11  C   UNK     0     156.137 113.803 116.449  0.00  0.00     0.187 A 
HETATM   12  C   UNK     0     153.481 116.371 121.662  0.00  0.00     0.186 A 
HETATM   13  C   UNK     0     158.639 114.394 118.516  0.00  0.00     0.143 A 
HETATM   14  C   UNK     0     156.919 113.199 115.266  0.00  0.00     0.061 C 
HETATM   15  C   UNK     0     155.128 113.447 115.341  0.00  0.00     0.061 C 
HETATM   16  C   UNK     0     151.950 116.518 121.578  0.00  0.00     0.061 C 
HETATM   17  C   UNK     0     152.989 116.998 122.980  0.00  0.00     0.061 C 
ENDROOT
BRANCH  13  18
HETATM   18  O   UNK     0     159.279 113.775 117.260  0.00  0.00    -0.212 OA
BRANCH  18  19
HETATM   19  S   UNK     0     160.688 114.214 116.817  0.00  0.00     0.406 S 
HETATM   20  O   UNK     0     160.970 114.742 118.236  0.00  0.00    -0.172 OA
HETATM   21  O   UNK     0     160.406 113.686 115.398  0.00  0.00    -0.172 OA
HETATM   22  N   UNK     0     162.096 114.652 116.374  0.00  0.00    -0.021 N 
ENDBRANCH  18  19
ENDBRANCH  13  18
TORSDOF 2
ENDMDL
MODEL 8
REMARK VINA RESULT:      -7.6     37.570     38.250
REMARK  2 active torsions:
REMARK  status: ('A' for Active; 'I' for Inactive)
REMARK    1  A    between atoms: S_1  and  O_7 
REMARK    2  A    between atoms: O_7  and  C_18 
ROOT
HETATM    1  O   UNK     0     148.110 150.742 113.739  0.00  0.00    -0.342 OA
HETATM    2  O   UNK     0     147.046 152.104 117.278  0.00  0.00     0.000 OA
HETATM    3  O   UNK     0     147.474 149.698 115.896  0.00  0.00    -0.329 OA
HETATM    4  O   UNK     0     148.179 154.323 113.427  0.00  0.00    -0.343 OA
HETATM    5  O   UNK     0     147.591 155.747 115.367  0.00  0.00    -0.344 OA
HETATM    6  C   UNK     0     147.806 151.866 114.733  0.00  0.00     0.202 A 
HETATM    7  C   UNK     0     147.836 153.400 114.599  0.00  0.00     0.187 A 
HETATM    8  C   UNK     0     147.411 151.218 116.073  0.00  0.00     0.185 A 
HETATM    9  C   UNK     0     147.470 154.286 115.805  0.00  0.00     0.168 A 
HETATM   10  C   UNK     0     147.075 153.637 117.145  0.00  0.00     0.024 A 
HETATM   11  C   UNK     0     147.906 149.406 114.456  0.00  0.00     0.187 A 
HETATM   12  C   UNK     0     148.028 155.770 113.900  0.00  0.00     0.186 A 
HETATM   13  C   UNK     0     147.016 150.570 117.413  0.00  0.00     0.143 A 
HETATM   14  C   UNK     0     147.830 147.894 114.743  0.00  0.00     0.061 C 
HETATM   15  C   UNK     0     148.295 148.656 113.169  0.00  0.00     0.061 C 
HETATM   16  C   UNK     0     148.442 156.269 112.503  0.00  0.00     0.061 C 
HETATM   17  C   UNK     0     148.012 157.310 113.920  0.00  0.00     0.061 C 
ENDROOT
BRANCH  13  18
HETATM   18  O   UNK     0     146.986 149.036 117.547  0.00  0.00    -0.212 OA
BRANCH  18  19
HETATM   19  S   UNK     0     146.266 148.381 118.740  0.00  0.00     0.406 S 
HETATM   20  O   UNK     0     146.640 146.987 118.201  0.00  0.00    -0.172 OA
HETATM   21  O   UNK     0     145.891 149.774 119.279  0.00  0.00    -0.172 OA
HETATM   22  N   UNK     0     145.545 147.726 119.933  0.00  0.00    -0.021 N 
ENDBRANCH  18  19
ENDBRANCH  13  18
TORSDOF 2
ENDMDL
MODEL 9
REMARK VINA RESULT:      -7.5     50.941     53.398
REMARK  2 active torsions:
REMARK  status: ('A' for Active; 'I' for Inactive)
REMARK    1  A    between atoms: S_1  and  O_7 
REMARK    2  A    between atoms: O_7  and  C_18 
ROOT
HETATM    1  O   UNK     0     108.406 126.914 119.833  0.00  0.00    -0.342 OA
HETATM    2  O   UNK     0     104.495 127.231 120.171  0.00  0.00     0.000 OA
HETATM    3  O   UNK     0     106.520 127.076 118.233  0.00  0.00    -0.329 OA
HETATM    4  O   UNK     0     107.769 126.947 123.371  0.00  0.00    -0.343 OA
HETATM    5  O   UNK     0     105.445 127.132 124.210  0.00  0.00    -0.344 OA
HETATM    6  C   UNK     0     107.111 127.015 120.643  0.00  0.00     0.202 A 
HETATM    7  C   UNK     0     106.838 127.029 122.159  0.00  0.00     0.187 A 
HETATM    8  C   UNK     0     105.939 127.116 119.650  0.00  0.00     0.185 A 
HETATM    9  C   UNK     0     105.393 127.145 122.680  0.00  0.00     0.168 A 
HETATM   10  C   UNK     0     104.222 127.246 121.686  0.00  0.00     0.024 A 
HETATM   11  C   UNK     0     108.041 126.951 118.348  0.00  0.00     0.187 A 
HETATM   12  C   UNK     0     106.910 127.010 124.637  0.00  0.00     0.186 A 
HETATM   13  C   UNK     0     104.767 127.217 118.655  0.00  0.00     0.143 A 
HETATM   14  C   UNK     0     108.155 126.950 116.812  0.00  0.00     0.061 C 
HETATM   15  C   UNK     0     109.532 126.831 117.980  0.00  0.00     0.061 C 
HETATM   16  C   UNK     0     108.178 126.902 125.503  0.00  0.00     0.061 C 
HETATM   17  C   UNK     0     106.481 127.038 126.115  0.00  0.00     0.061 C 
ENDROOT
BRANCH  13  18
HETATM   18  O   UNK     0     105.040 127.203 117.139  0.00  0.00    -0.212 OA
BRANCH  18  19
HETATM   19  S   UNK     0     103.869 127.314 116.145  0.00  0.00     0.406 S 
HETATM   20  O   UNK     0     104.827 126.998 114.981  0.00  0.00    -0.172 OA
HETATM   21  O   UNK     0     102.911 127.631 117.308  0.00  0.00    -0.172 OA
HETATM   22  N   UNK     0     102.698 127.426 115.151  0.00  0.00    -0.021 N 
ENDBRANCH  18  19
ENDBRANCH  13  18
TORSDOF 2
ENDMDL
MODEL 10
REMARK VINA RESULT:      -7.5      3.129      4.741
REMARK  2 active torsions:
REMARK  status: ('A' for Active; 'I' for Inactive)
REMARK    1  A    between atoms: S_1  and  O_7 
REMARK    2  A    between atoms: O_7  and  C_18 
ROOT
HETATM    1  O   UNK     0     157.365 114.462 116.916  0.00  0.00    -0.342 OA
HETATM    2  O   UNK     0     158.126 116.335 120.296  0.00  0.00     0.000 OA
HETATM    3  O   UNK     0     156.071 114.957 118.972  0.00  0.00    -0.329 OA
HETATM    4  O   UNK     0     160.771 115.574 116.626  0.00  0.00    -0.343 OA
HETATM    5  O   UNK     0     161.825 116.835 118.480  0.00  0.00    -0.344 OA
HETATM    6  C   UNK     0     158.275 115.244 117.867  0.00  0.00     0.202 A 
HETATM    7  C   UNK     0     159.734 115.720 117.742  0.00  0.00     0.187 A 
HETATM    8  C   UNK     0     157.471 115.551 119.144  0.00  0.00     0.185 A 
HETATM    9  C   UNK     0     160.389 116.504 118.895  0.00  0.00     0.168 A 
HETATM   10  C   UNK     0     159.585 116.811 120.172  0.00  0.00     0.024 A 
HETATM   11  C   UNK     0     156.006 114.285 117.598  0.00  0.00     0.187 A 
HETATM   12  C   UNK     0     162.061 116.262 117.081  0.00  0.00     0.186 A 
HETATM   13  C   UNK     0     156.667 115.858 120.421  0.00  0.00     0.143 A 
HETATM   14  C   UNK     0     154.546 113.876 117.868  0.00  0.00     0.061 C 
HETATM   15  C   UNK     0     155.490 113.515 116.367  0.00  0.00     0.061 C 
HETATM   16  C   UNK     0     162.733 115.880 115.749  0.00  0.00     0.061 C 
HETATM   17  C   UNK     0     163.503 116.801 117.103  0.00  0.00     0.061 C 
ENDROOT
BRANCH  13  18
HETATM   18  O   UNK     0     155.208 115.382 120.546  0.00  0.00    -0.212 OA
BRANCH  18  19
HETATM   19  S   UNK     0     154.257 116.066 121.546  0.00  0.00     0.406 S 
HETATM   20  O   UNK     0     155.431 116.898 122.094  0.00  0.00    -0.172 OA
HETATM   21  O   UNK     0     153.082 115.233 120.999  0.00  0.00    -0.172 OA
HETATM   22  N   UNK     0     153.306 116.749 122.546  0.00  0.00    -0.021 N 
ENDBRANCH  18  19
ENDBRANCH  13  18
TORSDOF 2
ENDMDL
