REMARK  4 active torsions:
REMARK  status: ('A' for Active; 'I' for Inactive)
REMARK    1  A    between atoms: C_2  and  C_16 
REMARK    2  A    between atoms: C_16  and  C_17 
REMARK    3  A    between atoms: C_17  and  C_18 
REMARK    4  A    between atoms: C_18  and  C_19 
ROOT
HETATM    1  C   UNK     0      -1.333  -3.097   0.000  0.00  0.00    -0.026 A 
HETATM    2  C   UNK     0       0.004  -2.326   0.000  0.00  0.00    -0.041 A 
HETATM    3  C   UNK     0      -0.001  -0.776   0.000  0.00  0.00     0.076 A 
HETATM    4  C   UNK     0      -1.336  -0.012   0.000  0.00  0.00     0.109 A 
HETATM    5  C   UNK     0      -2.667  -2.327   0.000  0.00  0.00     0.067 A 
HETATM    6  C   UNK     0      -2.659  -0.782   0.000  0.00  0.00     0.003 A 
HETATM    7  C   UNK     0      -5.336  -2.313   0.000  0.00  0.00    -0.030 A 
HETATM    8  C   UNK     0      -5.328  -0.769   0.000  0.00  0.00    -0.031 A 
HETATM    9  C   UNK     0      -3.978  -0.011   0.000  0.00  0.00    -0.028 A 
HETATM   10  C   UNK     0      -3.958   1.528   0.000  0.00  0.00     0.026 A 
HETATM   11  C   UNK     0      -5.286   2.322   0.000  0.00  0.00     0.005 A 
HETATM   12  C   UNK     0      -6.637   1.565   0.000  0.00  0.00     0.005 A 
HETATM   13  C   UNK     0      -6.659   0.013   0.000  0.00  0.00     0.026 A 
HETATM   14  C   UNK     0      -5.265   3.862   0.000  0.00  0.00     0.000 C 
HETATM   15  O   UNK     0      -1.342   1.528   0.000  0.00  0.00    -0.195 OA
HETATM   16  C   UNK     0      -4.006  -3.090   0.000  0.00  0.00    -0.022 A 
HETATM   17  C   UNK     0      -6.673  -3.076   0.000  0.00  0.00     0.030 C 
HETATM   18  O   UNK     0      -2.678  -3.862   0.000  0.00  0.00     0.000 OA
ENDROOT
BRANCH   2  19
HETATM   19  C   UNK     0       1.339  -3.094   0.000  0.00  0.00     0.022 C 
BRANCH  19  20
HETATM   20  C   UNK     0       2.671  -2.321   0.000  0.00  0.00     0.004 C 
BRANCH  20  21
HETATM   21  C   UNK     0       4.006  -3.089   0.000  0.00  0.00     0.000 C 
BRANCH  21  22
HETATM   22  C   UNK     0       5.338  -2.317   0.000  0.00  0.00     0.000 C 
HETATM   23  C   UNK     0       6.673  -3.085   0.000  0.00  0.00     0.000 C 
ENDBRANCH  21  22
ENDBRANCH  20  21
ENDBRANCH  19  20
ENDBRANCH   2  19
TORSDOF 4
