REMARK  9 active torsions:
REMARK  status: ('A' for Active; 'I' for Inactive)
REMARK    1  A    between atoms: C_3  and  C_21 
REMARK    2  A    between atoms: C_4  and  C_14 
REMARK    3  A    between atoms: C_7  and  N_9 
REMARK       I    between atoms: N_9  and  C_10 
REMARK    4  A    between atoms: C_10  and  C_13 
REMARK    5  A    between atoms: C_13  and  C_15 
REMARK    6  A    between atoms: C_13  and  N_20 
REMARK    7  A    between atoms: C_14  and  S_24 
REMARK    8  A    between atoms: N_20  and  O_35 
REMARK    9  A    between atoms: S_24  and  C_25 
ROOT
HETATM    1  C   UNK     0      27.258 -20.021   0.000  0.00  0.00     0.308 A 
HETATM    2  N   UNK     0      27.258 -21.484   0.000  0.00  0.00    -0.297 N 
HETATM    3  C   UNK     0      28.644 -22.254   0.000  0.00  0.00     0.121 A 
HETATM    4  C   UNK     0      29.953 -21.484   0.000  0.00  0.00    -0.002 A 
HETATM    5  C   UNK     0      29.953 -20.021   0.000  0.00  0.00     0.065 A 
HETATM    6  S   UNK     0      28.644 -19.251   0.000  0.00  0.00    -0.194 SA
HETATM    7  C   UNK     0      25.718 -20.021   0.000  0.00  0.00     0.125 A 
HETATM    8  C   UNK     0      25.718 -21.484   0.000  0.00  0.00     0.211 A 
HETATM    9  O   UNK     0      24.409 -22.254   0.000  0.00  0.00    -0.170 OA
ENDROOT
BRANCH   7  10
HETATM   10  N   UNK     0      24.409 -19.251   0.000  0.00  0.00    -0.217 NA
HETATM   11  C   UNK     0      23.100 -20.021   0.000  0.00  0.00     0.234 C 
HETATM   12  O   UNK     0      23.100 -21.484   0.000  0.00  0.00    -0.167 OA
BRANCH  11  13
HETATM   13  C   UNK     0      21.791 -19.251   0.000  0.00  0.00     0.165 C 
BRANCH  13  14
HETATM   14  C   UNK     0      20.405 -20.021   0.000  0.00  0.00     0.091 A 
HETATM   15  C   UNK     0      19.173 -19.097   0.000  0.00  0.00     0.108 A 
HETATM   16  S   UNK     0      17.941 -20.021   0.000  0.00  0.00    -0.072 SA
HETATM   17  C   UNK     0      18.403 -21.561   0.000  0.00  0.00     0.456 A 
HETATM   18  N   UNK     0      19.943 -21.561   0.000  0.00  0.00    -0.229 NA
HETATM   19  N   UNK     0      17.480 -22.793   0.000  0.00  0.00     0.656 N 
ENDBRANCH  13  14
BRANCH  13  20
HETATM   20  N   UNK     0      21.791 -17.634   0.000  0.00  0.00    -0.126 NA
BRANCH  20  21
HETATM   21  O   UNK     0      23.119 -16.852   0.000  0.00  0.00    -0.234 OA
HETATM   22  C   UNK     0      23.119 -15.312   0.000  0.00  0.00     0.211 C 
ENDBRANCH  20  21
ENDBRANCH  13  20
ENDBRANCH  11  13
ENDBRANCH   7  10
BRANCH   3  23
HETATM   23  C   UNK     0      28.644 -23.794   0.000  0.00  0.00     0.227 C 
HETATM   24  O   UNK     0      29.953 -24.641   0.000  0.00  0.00    -0.643 OA
HETATM   25  O   UNK     0      27.258 -24.564   0.000  0.00  0.00    -0.643 OA
ENDBRANCH   3  23
BRANCH   4  26
HETATM   26  C   UNK     0      31.262 -22.331   0.000  0.00  0.00     0.089 C 
BRANCH  26  27
HETATM   27  S   UNK     0      32.571 -21.561   0.000  0.00  0.00    -0.071 SA
BRANCH  27  28
HETATM   28  C   UNK     0      33.880 -22.331   0.000  0.00  0.00     0.190 A 
HETATM   29  N   UNK     0      33.880 -23.871   0.000  0.00  0.00    -0.192 NA
HETATM   30  C   UNK     0      35.189 -24.641   0.000  0.00  0.00     0.260 A 
HETATM   31  C   UNK     0      36.575 -23.871   0.000  0.00  0.00     0.274 A 
HETATM   32  O   UNK     0      35.189 -26.181   0.000  0.00  0.00    -0.165 OA
HETATM   33  N   UNK     0      36.575 -22.331   0.000  0.00  0.00    -0.136 NA
HETATM   34  O   UNK     0      37.884 -24.641   0.000  0.00  0.00    -0.164 OA
HETATM   35  N   UNK     0      35.189 -21.561   0.000  0.00  0.00    -0.225 N 
HETATM   36  C   UNK     0      35.189 -20.021   0.000  0.00  0.00     0.156 C 
ENDBRANCH  27  28
ENDBRANCH  26  27
ENDBRANCH   4  26
TORSDOF 9
