MODEL 1
REMARK VINA RESULT:      -7.8      0.000      0.000
REMARK  9 active torsions:
REMARK  status: ('A' for Active; 'I' for Inactive)
REMARK    1  A    between atoms: C_3  and  C_21 
REMARK    2  A    between atoms: C_4  and  C_14 
REMARK    3  A    between atoms: C_7  and  N_9 
REMARK       I    between atoms: N_9  and  C_10 
REMARK    4  A    between atoms: C_10  and  C_13 
REMARK    5  A    between atoms: C_13  and  C_15 
REMARK    6  A    between atoms: C_13  and  N_20 
REMARK    7  A    between atoms: C_14  and  S_24 
REMARK    8  A    between atoms: N_20  and  O_35 
REMARK    9  A    between atoms: S_24  and  C_25 
ROOT
HETATM    1  C   UNK     0     125.968 127.010 118.502  0.00  0.00     0.308 A 
HETATM    2  N   UNK     0     125.433 127.664 117.308  0.00  0.00    -0.297 N 
HETATM    3  C   UNK     0     125.945 129.117 116.932  0.00  0.00     0.121 A 
HETATM    4  C   UNK     0     126.976 129.819 117.798  0.00  0.00    -0.002 A 
HETATM    5  C   UNK     0     127.510 129.165 118.993  0.00  0.00     0.065 A 
HETATM    6  S   UNK     0     127.042 127.773 119.383  0.00  0.00    -0.194 SA
HETATM    7  C   UNK     0     125.086 125.779 118.222  0.00  0.00     0.125 A 
HETATM    8  C   UNK     0     124.552 126.433 117.028  0.00  0.00     0.211 A 
HETATM    9  O   UNK     0     123.521 125.731 116.161  0.00  0.00    -0.170 OA
ENDROOT
BRANCH   7  10
HETATM   10  N   UNK     0     124.618 124.388 118.612  0.00  0.00    -0.217 NA
HETATM   11  C   UNK     0     123.471 124.244 119.597  0.00  0.00     0.234 C 
HETATM   12  O   UNK     0     122.826 125.430 120.162  0.00  0.00    -0.167 OA
BRANCH  11  13
HETATM   13  C   UNK     0     123.003 122.853 119.987  0.00  0.00     0.165 C 
BRANCH  13  14
HETATM   14  C   UNK     0     122.429 121.861 118.892  0.00  0.00     0.091 A 
HETATM   15  C   UNK     0     123.244 120.565 118.730  0.00  0.00     0.108 A 
HETATM   16  S   UNK     0     122.536 119.745 117.635  0.00  0.00    -0.072 SA
HETATM   17  C   UNK     0     121.247 120.538 117.094  0.00  0.00     0.456 A 
HETATM   18  N   UNK     0     121.180 121.861 117.879  0.00  0.00    -0.229 NA
HETATM   19  N   UNK     0     120.272 120.063 116.002  0.00  0.00     0.656 N 
ENDBRANCH  13  14
BRANCH  13  20
HETATM   20  N   UNK     0     123.083 122.363 121.526  0.00  0.00    -0.126 NA
BRANCH  20  21
HETATM   21  O   UNK     0     122.352 123.145 122.635  0.00  0.00    -0.234 OA
HETATM   22  C   UNK     0     123.079 124.254 123.418  0.00  0.00     0.211 C 
ENDBRANCH  20  21
ENDBRANCH  13  20
ENDBRANCH  11  13
ENDBRANCH   7  10
BRANCH   3  23
HETATM   23  C   UNK     0     125.383 129.806 115.674  0.00  0.00     0.227 C 
HETATM   24  O   UNK     0     125.791 129.392 114.228  0.00  0.00    -0.643 OA
HETATM   25  O   UNK     0     124.342 130.990 115.846  0.00  0.00    -0.643 OA
ENDBRANCH   3  23
BRANCH   4  26
HETATM   26  C   UNK     0     127.416 131.244 117.345  0.00  0.00     0.089 C 
BRANCH  26  27
HETATM   27  S   UNK     0     128.910 131.501 117.263  0.00  0.00    -0.071 SA
BRANCH  27  28
HETATM   28  C   UNK     0     129.409 132.933 117.176  0.00  0.00     0.190 A 
HETATM   29  N   UNK     0     128.454 134.111 117.445  0.00  0.00    -0.192 NA
HETATM   30  C   UNK     0     128.953 135.542 117.359  0.00  0.00     0.260 A 
HETATM   31  C   UNK     0     130.464 135.846 116.990  0.00  0.00     0.274 A 
HETATM   32  O   UNK     0     127.997 136.720 117.627  0.00  0.00    -0.165 OA
HETATM   33  N   UNK     0     131.420 134.669 116.722  0.00  0.00    -0.136 NA
HETATM   34  O   UNK     0     130.963 137.278 116.904  0.00  0.00    -0.164 OA
HETATM   35  N   UNK     0     130.864 133.188 116.821  0.00  0.00    -0.225 N 
HETATM   36  C   UNK     0     131.819 132.010 116.552  0.00  0.00     0.156 C 
ENDBRANCH  27  28
ENDBRANCH  26  27
ENDBRANCH   4  26
TORSDOF 9
ENDMDL
MODEL 2
REMARK VINA RESULT:      -7.5      2.073      3.110
REMARK  9 active torsions:
REMARK  status: ('A' for Active; 'I' for Inactive)
REMARK    1  A    between atoms: C_3  and  C_21 
REMARK    2  A    between atoms: C_4  and  C_14 
REMARK    3  A    between atoms: C_7  and  N_9 
REMARK       I    between atoms: N_9  and  C_10 
REMARK    4  A    between atoms: C_10  and  C_13 
REMARK    5  A    between atoms: C_13  and  C_15 
REMARK    6  A    between atoms: C_13  and  N_20 
REMARK    7  A    between atoms: C_14  and  S_24 
REMARK    8  A    between atoms: N_20  and  O_35 
REMARK    9  A    between atoms: S_24  and  C_25 
ROOT
HETATM    1  C   UNK     0     124.660 127.368 118.140  0.00  0.00     0.308 A 
HETATM    2  N   UNK     0     124.471 128.112 116.895  0.00  0.00    -0.297 N 
HETATM    3  C   UNK     0     125.309 129.437 116.655  0.00  0.00     0.121 A 
HETATM    4  C   UNK     0     126.294 129.926 117.702  0.00  0.00    -0.002 A 
HETATM    5  C   UNK     0     126.483 129.181 118.947  0.00  0.00     0.065 A 
HETATM    6  S   UNK     0     125.698 127.908 119.210  0.00  0.00    -0.194 SA
HETATM    7  C   UNK     0     123.619 126.331 117.678  0.00  0.00     0.125 A 
HETATM    8  C   UNK     0     123.429 127.076 116.433  0.00  0.00     0.211 A 
HETATM    9  O   UNK     0     122.444 126.587 115.386  0.00  0.00    -0.170 OA
ENDROOT
BRANCH   7  10
HETATM   10  N   UNK     0     122.833 125.059 117.942  0.00  0.00    -0.217 NA
HETATM   11  C   UNK     0     123.441 123.722 117.552  0.00  0.00     0.234 C 
HETATM   12  O   UNK     0     124.765 123.662 116.932  0.00  0.00    -0.167 OA
BRANCH  11  13
HETATM   13  C   UNK     0     122.655 122.450 117.815  0.00  0.00     0.165 C 
BRANCH  13  14
HETATM   14  C   UNK     0     122.828 121.666 119.183  0.00  0.00     0.091 A 
HETATM   15  C   UNK     0     122.997 122.578 120.412  0.00  0.00     0.108 A 
HETATM   16  S   UNK     0     123.148 121.643 121.626  0.00  0.00    -0.072 SA
HETATM   17  C   UNK     0     123.073 120.107 121.155  0.00  0.00     0.456 A 
HETATM   18  N   UNK     0     122.873 120.122 119.628  0.00  0.00    -0.229 NA
HETATM   19  N   UNK     0     123.180 118.866 122.060  0.00  0.00     0.656 N 
ENDBRANCH  13  14
BRANCH  13  20
HETATM   20  N   UNK     0     121.631 121.874 116.704  0.00  0.00    -0.126 NA
BRANCH  20  21
HETATM   21  O   UNK     0     121.164 122.764 115.536  0.00  0.00    -0.234 OA
HETATM   22  C   UNK     0     122.011 122.880 114.255  0.00  0.00     0.211 C 
ENDBRANCH  20  21
ENDBRANCH  13  20
ENDBRANCH  11  13
ENDBRANCH   7  10
BRANCH   3  23
HETATM   23  C   UNK     0     125.109 130.221 115.344  0.00  0.00     0.227 C 
HETATM   24  O   UNK     0     124.366 131.590 115.281  0.00  0.00    -0.643 OA
HETATM   25  O   UNK     0     125.680 129.619 113.993  0.00  0.00    -0.643 OA
ENDBRANCH   3  23
BRANCH   4  26
HETATM   26  C   UNK     0     127.069 131.238 117.373  0.00  0.00     0.089 C 
BRANCH  26  27
HETATM   27  S   UNK     0     128.579 131.194 117.533  0.00  0.00    -0.071 SA
BRANCH  27  28
HETATM   28  C   UNK     0     129.405 132.378 117.062  0.00  0.00     0.190 A 
HETATM   29  N   UNK     0     128.717 133.676 116.600  0.00  0.00    -0.192 NA
HETATM   30  C   UNK     0     129.544 134.860 116.129  0.00  0.00     0.260 A 
HETATM   31  C   UNK     0     131.127 134.778 116.106  0.00  0.00     0.274 A 
HETATM   32  O   UNK     0     128.856 136.158 115.666  0.00  0.00    -0.165 OA
HETATM   33  N   UNK     0     131.815 133.480 116.569  0.00  0.00    -0.136 NA
HETATM   34  O   UNK     0     131.953 135.962 115.635  0.00  0.00    -0.164 OA
HETATM   35  N   UNK     0     130.920 132.264 117.054  0.00  0.00    -0.225 N 
HETATM   36  C   UNK     0     131.608 130.967 117.516  0.00  0.00     0.156 C 
ENDBRANCH  27  28
ENDBRANCH  26  27
ENDBRANCH   4  26
TORSDOF 9
ENDMDL
MODEL 3
REMARK VINA RESULT:      -7.0     16.897     22.743
REMARK  9 active torsions:
REMARK  status: ('A' for Active; 'I' for Inactive)
REMARK    1  A    between atoms: C_3  and  C_21 
REMARK    2  A    between atoms: C_4  and  C_14 
REMARK    3  A    between atoms: C_7  and  N_9 
REMARK       I    between atoms: N_9  and  C_10 
REMARK    4  A    between atoms: C_10  and  C_13 
REMARK    5  A    between atoms: C_13  and  C_15 
REMARK    6  A    between atoms: C_13  and  N_20 
REMARK    7  A    between atoms: C_14  and  S_24 
REMARK    8  A    between atoms: N_20  and  O_35 
REMARK    9  A    between atoms: S_24  and  C_25 
ROOT
HETATM    1  C   UNK     0     135.804 138.081 103.841  0.00  0.00     0.308 A 
HETATM    2  N   UNK     0     135.228 138.437 102.544  0.00  0.00    -0.297 N 
HETATM    3  C   UNK     0     136.107 138.259 101.236  0.00  0.00     0.121 A 
HETATM    4  C   UNK     0     137.526 137.726 101.329  0.00  0.00    -0.002 A 
HETATM    5  C   UNK     0     138.102 137.370 102.626  0.00  0.00     0.065 A 
HETATM    6  S   UNK     0     137.288 137.528 103.899  0.00  0.00    -0.194 SA
HETATM    7  C   UNK     0     134.490 138.488 104.535  0.00  0.00     0.125 A 
HETATM    8  C   UNK     0     133.915 138.844 103.238  0.00  0.00     0.211 A 
HETATM    9  O   UNK     0     132.496 139.377 103.146  0.00  0.00    -0.170 OA
ENDROOT
BRANCH   7  10
HETATM   10  N   UNK     0     133.677 138.645 105.808  0.00  0.00    -0.217 NA
HETATM   11  C   UNK     0     133.651 139.995 106.504  0.00  0.00     0.234 C 
HETATM   12  O   UNK     0     134.399 141.127 105.956  0.00  0.00    -0.167 OA
BRANCH  11  13
HETATM   13  C   UNK     0     132.838 140.153 107.777  0.00  0.00     0.165 C 
BRANCH  13  14
HETATM   14  C   UNK     0     131.702 141.255 107.874  0.00  0.00     0.091 A 
HETATM   15  C   UNK     0     130.705 141.236 106.700  0.00  0.00     0.108 A 
HETATM   16  S   UNK     0     129.694 142.365 106.975  0.00  0.00    -0.072 SA
HETATM   17  C   UNK     0     130.059 143.114 108.350  0.00  0.00     0.456 A 
HETATM   18  N   UNK     0     131.314 142.420 108.912  0.00  0.00    -0.229 NA
HETATM   19  N   UNK     0     129.298 144.295 108.978  0.00  0.00     0.656 N 
ENDBRANCH  13  14
BRANCH  13  20
HETATM   20  N   UNK     0     133.117 139.199 109.052  0.00  0.00    -0.126 NA
BRANCH  20  21
HETATM   21  O   UNK     0     134.136 138.046 108.958  0.00  0.00    -0.234 OA
HETATM   22  C   UNK     0     134.310 137.060 110.128  0.00  0.00     0.211 C 
ENDBRANCH  20  21
ENDBRANCH  13  20
ENDBRANCH  11  13
ENDBRANCH   7  10
BRANCH   3  23
HETATM   23  C   UNK     0     135.502 138.634  99.871  0.00  0.00     0.227 C 
HETATM   24  O   UNK     0     134.470 137.733  99.126  0.00  0.00    -0.643 OA
HETATM   25  O   UNK     0     135.938 139.994  99.182  0.00  0.00    -0.643 OA
ENDBRANCH   3  23
BRANCH   4  26
HETATM   26  C   UNK     0     138.309 137.587  99.988  0.00  0.00     0.089 C 
BRANCH  26  27
HETATM   27  S   UNK     0     139.528 138.477  99.816  0.00  0.00    -0.071 SA
BRANCH  27  28
HETATM   28  C   UNK     0     139.832 139.053  98.444  0.00  0.00     0.190 A 
HETATM   29  N   UNK     0     138.875 138.807  97.263  0.00  0.00    -0.192 NA
HETATM   30  C   UNK     0     139.180 139.383  95.892  0.00  0.00     0.260 A 
HETATM   31  C   UNK     0     140.488 140.247  95.655  0.00  0.00     0.274 A 
HETATM   32  O   UNK     0     138.223 139.136  94.711  0.00  0.00    -0.165 OA
HETATM   33  N   UNK     0     141.445 140.494  96.836  0.00  0.00    -0.136 NA
HETATM   34  O   UNK     0     140.792 140.824  94.283  0.00  0.00    -0.164 OA
HETATM   35  N   UNK     0     141.094 139.876  98.253  0.00  0.00    -0.225 N 
HETATM   36  C   UNK     0     142.052 140.123  99.434  0.00  0.00     0.156 C 
ENDBRANCH  27  28
ENDBRANCH  26  27
ENDBRANCH   4  26
TORSDOF 9
ENDMDL
MODEL 4
REMARK VINA RESULT:      -6.8     44.715     46.466
REMARK  9 active torsions:
REMARK  status: ('A' for Active; 'I' for Inactive)
REMARK    1  A    between atoms: C_3  and  C_21 
REMARK    2  A    between atoms: C_4  and  C_14 
REMARK    3  A    between atoms: C_7  and  N_9 
REMARK       I    between atoms: N_9  and  C_10 
REMARK    4  A    between atoms: C_10  and  C_13 
REMARK    5  A    between atoms: C_13  and  C_15 
REMARK    6  A    between atoms: C_13  and  N_20 
REMARK    7  A    between atoms: C_14  and  S_24 
REMARK    8  A    between atoms: N_20  and  O_35 
REMARK    9  A    between atoms: S_24  and  C_25 
ROOT
HETATM    1  C   UNK     0     153.807 117.943 151.583  0.00  0.00     0.308 A 
HETATM    2  N   UNK     0     154.597 117.095 150.689  0.00  0.00    -0.297 N 
HETATM    3  C   UNK     0     155.693 117.766 149.761  0.00  0.00     0.121 A 
HETATM    4  C   UNK     0     155.921 119.267 149.799  0.00  0.00    -0.002 A 
HETATM    5  C   UNK     0     155.131 120.115 150.693  0.00  0.00     0.065 A 
HETATM    6  S   UNK     0     154.073 119.506 151.596  0.00  0.00    -0.194 SA
HETATM    7  C   UNK     0     153.050 116.701 152.091  0.00  0.00     0.125 A 
HETATM    8  C   UNK     0     153.840 115.854 151.197  0.00  0.00     0.211 A 
HETATM    9  O   UNK     0     153.612 114.353 151.159  0.00  0.00    -0.170 OA
ENDROOT
BRANCH   7  10
HETATM   10  N   UNK     0     151.992 116.092 152.994  0.00  0.00    -0.217 NA
HETATM   11  C   UNK     0     152.417 115.462 154.309  0.00  0.00     0.234 C 
HETATM   12  O   UNK     0     153.826 115.442 154.700  0.00  0.00    -0.167 OA
BRANCH  11  13
HETATM   13  C   UNK     0     151.358 114.853 155.211  0.00  0.00     0.165 C 
BRANCH  13  14
HETATM   14  C   UNK     0     149.939 115.543 155.366  0.00  0.00     0.091 A 
HETATM   15  C   UNK     0     148.750 114.575 155.222  0.00  0.00     0.108 A 
HETATM   16  S   UNK     0     147.478 115.424 155.401  0.00  0.00    -0.072 SA
HETATM   17  C   UNK     0     147.870 116.961 155.664  0.00  0.00     0.456 A 
HETATM   18  N   UNK     0     149.408 117.036 155.642  0.00  0.00    -0.229 NA
HETATM   19  N   UNK     0     146.893 118.129 155.892  0.00  0.00     0.656 N 
ENDBRANCH  13  14
BRANCH  13  20
HETATM   20  N   UNK     0     151.662 113.491 156.028  0.00  0.00    -0.126 NA
BRANCH  20  21
HETATM   21  O   UNK     0     151.768 112.143 155.289  0.00  0.00    -0.234 OA
HETATM   22  C   UNK     0     150.500 111.347 154.930  0.00  0.00     0.211 C 
ENDBRANCH  20  21
ENDBRANCH  13  20
ENDBRANCH  11  13
ENDBRANCH   7  10
BRANCH   3  23
HETATM   23  C   UNK     0     156.524 116.874 148.820  0.00  0.00     0.227 C 
HETATM   24  O   UNK     0     157.745 116.035 149.308  0.00  0.00    -0.643 OA
HETATM   25  O   UNK     0     156.132 116.797 147.286  0.00  0.00    -0.643 OA
ENDBRANCH   3  23
BRANCH   4  26
HETATM   26  C   UNK     0     157.021 119.832 148.850  0.00  0.00     0.089 C 
BRANCH  26  27
HETATM   27  S   UNK     0     158.337 120.232 149.495  0.00  0.00    -0.071 SA
BRANCH  27  28
HETATM   28  C   UNK     0     158.561 119.925 150.965  0.00  0.00     0.190 A 
HETATM   29  N   UNK     0     158.912 118.496 151.420  0.00  0.00    -0.192 NA
HETATM   30  C   UNK     0     159.137 118.189 152.890  0.00  0.00     0.260 A 
HETATM   31  C   UNK     0     159.014 119.336 153.978  0.00  0.00     0.274 A 
HETATM   32  O   UNK     0     159.487 116.761 153.345  0.00  0.00    -0.165 OA
HETATM   33  N   UNK     0     158.663 120.765 153.524  0.00  0.00    -0.136 NA
HETATM   34  O   UNK     0     159.238 119.029 155.449  0.00  0.00    -0.164 OA
HETATM   35  N   UNK     0     158.435 121.047 151.980  0.00  0.00    -0.225 N 
HETATM   36  C   UNK     0     158.085 122.476 151.526  0.00  0.00     0.156 C 
ENDBRANCH  27  28
ENDBRANCH  26  27
ENDBRANCH   4  26
TORSDOF 9
ENDMDL
MODEL 5
REMARK VINA RESULT:      -6.8     16.945     22.333
REMARK  9 active torsions:
REMARK  status: ('A' for Active; 'I' for Inactive)
REMARK    1  A    between atoms: C_3  and  C_21 
REMARK    2  A    between atoms: C_4  and  C_14 
REMARK    3  A    between atoms: C_7  and  N_9 
REMARK       I    between atoms: N_9  and  C_10 
REMARK    4  A    between atoms: C_10  and  C_13 
REMARK    5  A    between atoms: C_13  and  C_15 
REMARK    6  A    between atoms: C_13  and  N_20 
REMARK    7  A    between atoms: C_14  and  S_24 
REMARK    8  A    between atoms: N_20  and  O_35 
REMARK    9  A    between atoms: S_24  and  C_25 
ROOT
HETATM    1  C   UNK     0     136.136 138.179 103.487  0.00  0.00     0.308 A 
HETATM    2  N   UNK     0     135.449 138.069 102.200  0.00  0.00    -0.297 N 
HETATM    3  C   UNK     0     136.299 138.156 100.864  0.00  0.00     0.121 A 
HETATM    4  C   UNK     0     137.804 138.350 100.920  0.00  0.00    -0.002 A 
HETATM    5  C   UNK     0     138.491 138.460 102.208  0.00  0.00     0.065 A 
HETATM    6  S   UNK     0     137.708 138.381 103.507  0.00  0.00    -0.194 SA
HETATM    7  C   UNK     0     134.790 138.018 104.219  0.00  0.00     0.125 A 
HETATM    8  C   UNK     0     134.103 137.909 102.931  0.00  0.00     0.211 A 
HETATM    9  O   UNK     0     132.598 137.715 102.875  0.00  0.00    -0.170 OA
ENDROOT
BRANCH   7  10
HETATM   10  N   UNK     0     134.007 137.939 105.518  0.00  0.00    -0.217 NA
HETATM   11  C   UNK     0     133.620 139.226 106.225  0.00  0.00     0.234 C 
HETATM   12  O   UNK     0     133.997 140.524 105.664  0.00  0.00    -0.167 OA
BRANCH  11  13
HETATM   13  C   UNK     0     132.838 139.147 107.524  0.00  0.00     0.165 C 
BRANCH  13  14
HETATM   14  C   UNK     0     131.252 139.120 107.508  0.00  0.00     0.091 A 
HETATM   15  C   UNK     0     130.605 139.373 108.882  0.00  0.00     0.108 A 
HETATM   16  S   UNK     0     129.083 139.307 108.660  0.00  0.00    -0.072 SA
HETATM   17  C   UNK     0     128.760 139.006 107.114  0.00  0.00     0.456 A 
HETATM   18  N   UNK     0     130.116 138.888 106.394  0.00  0.00    -0.229 NA
HETATM   19  N   UNK     0     127.364 138.863 106.482  0.00  0.00     0.656 N 
ENDBRANCH  13  14
BRANCH  13  20
HETATM   20  N   UNK     0     133.609 139.090 108.944  0.00  0.00    -0.126 NA
BRANCH  20  21
HETATM   21  O   UNK     0     134.102 137.745 109.513  0.00  0.00    -0.234 OA
HETATM   22  C   UNK     0     133.183 136.510 109.505  0.00  0.00     0.211 C 
ENDBRANCH  20  21
ENDBRANCH  13  20
ENDBRANCH  11  13
ENDBRANCH   7  10
BRANCH   3  23
HETATM   23  C   UNK     0     135.577 138.041  99.509  0.00  0.00     0.227 C 
HETATM   24  O   UNK     0     135.276 139.273  98.602  0.00  0.00    -0.643 OA
HETATM   25  O   UNK     0     135.113 136.612  99.003  0.00  0.00    -0.643 OA
ENDBRANCH   3  23
BRANCH   4  26
HETATM   26  C   UNK     0     138.551 138.423  99.554  0.00  0.00     0.089 C 
BRANCH  26  27
HETATM   27  S   UNK     0     139.166 137.132  99.044  0.00  0.00    -0.071 SA
BRANCH  27  28
HETATM   28  C   UNK     0     139.620 137.052  97.597  0.00  0.00     0.190 A 
HETATM   29  N   UNK     0     139.825 138.335  96.771  0.00  0.00    -0.192 NA
HETATM   30  C   UNK     0     140.279 138.255  95.324  0.00  0.00     0.260 A 
HETATM   31  C   UNK     0     140.551 136.849  94.643  0.00  0.00     0.274 A 
HETATM   32  O   UNK     0     140.484 139.538  94.498  0.00  0.00    -0.165 OA
HETATM   33  N   UNK     0     140.347 135.566  95.469  0.00  0.00    -0.136 NA
HETATM   34  O   UNK     0     141.006 136.769  93.196  0.00  0.00    -0.164 OA
HETATM   35  N   UNK     0     139.871 135.688  96.977  0.00  0.00    -0.225 N 
HETATM   36  C   UNK     0     139.667 134.405  97.803  0.00  0.00     0.156 C 
ENDBRANCH  27  28
ENDBRANCH  26  27
ENDBRANCH   4  26
TORSDOF 9
ENDMDL
MODEL 6
REMARK VINA RESULT:      -6.6      3.069      4.335
REMARK  9 active torsions:
REMARK  status: ('A' for Active; 'I' for Inactive)
REMARK    1  A    between atoms: C_3  and  C_21 
REMARK    2  A    between atoms: C_4  and  C_14 
REMARK    3  A    between atoms: C_7  and  N_9 
REMARK       I    between atoms: N_9  and  C_10 
REMARK    4  A    between atoms: C_10  and  C_13 
REMARK    5  A    between atoms: C_13  and  C_15 
REMARK    6  A    between atoms: C_13  and  N_20 
REMARK    7  A    between atoms: C_14  and  S_24 
REMARK    8  A    between atoms: N_20  and  O_35 
REMARK    9  A    between atoms: S_24  and  C_25 
ROOT
HETATM    1  C   UNK     0     123.271 125.325 117.403  0.00  0.00     0.308 A 
HETATM    2  N   UNK     0     123.495 125.764 116.026  0.00  0.00    -0.297 N 
HETATM    3  C   UNK     0     124.134 127.192 115.768  0.00  0.00     0.121 A 
HETATM    4  C   UNK     0     124.508 128.091 116.933  0.00  0.00    -0.002 A 
HETATM    5  C   UNK     0     124.284 127.651 118.311  0.00  0.00     0.065 A 
HETATM    6  S   UNK     0     123.674 126.290 118.595  0.00  0.00    -0.194 SA
HETATM    7  C   UNK     0     122.693 123.995 116.885  0.00  0.00     0.125 A 
HETATM    8  C   UNK     0     122.917 124.435 115.507  0.00  0.00     0.211 A 
HETATM    9  O   UNK     0     122.542 123.536 114.342  0.00  0.00    -0.170 OA
ENDROOT
BRANCH   7  10
HETATM   10  N   UNK     0     122.083 122.634 117.169  0.00  0.00    -0.217 NA
HETATM   11  C   UNK     0     122.950 121.394 117.034  0.00  0.00     0.234 C 
HETATM   12  O   UNK     0     124.353 121.510 116.637  0.00  0.00    -0.167 OA
BRANCH  11  13
HETATM   13  C   UNK     0     122.340 120.033 117.318  0.00  0.00     0.165 C 
BRANCH  13  14
HETATM   14  C   UNK     0     122.286 119.469 118.799  0.00  0.00     0.091 A 
HETATM   15  C   UNK     0     123.653 119.431 119.507  0.00  0.00     0.108 A 
HETATM   16  S   UNK     0     123.395 118.861 120.914  0.00  0.00    -0.072 SA
HETATM   17  C   UNK     0     121.832 118.531 121.100  0.00  0.00     0.456 A 
HETATM   18  N   UNK     0     121.139 118.910 119.778  0.00  0.00    -0.229 NA
HETATM   19  N   UNK     0     121.164 117.948 122.358  0.00  0.00     0.656 N 
ENDBRANCH  13  14
BRANCH  13  20
HETATM   20  N   UNK     0     121.736 119.138 116.115  0.00  0.00    -0.126 NA
BRANCH  20  21
HETATM   21  O   UNK     0     120.822 117.934 116.418  0.00  0.00    -0.234 OA
HETATM   22  C   UNK     0     119.291 118.101 116.435  0.00  0.00     0.211 C 
ENDBRANCH  20  21
ENDBRANCH  13  20
ENDBRANCH  11  13
ENDBRANCH   7  10
BRANCH   3  23
HETATM   23  C   UNK     0     124.370 127.655 114.318  0.00  0.00     0.227 C 
HETATM   24  O   UNK     0     125.733 128.229 113.823  0.00  0.00    -0.643 OA
HETATM   25  O   UNK     0     123.183 127.548 113.273  0.00  0.00    -0.643 OA
ENDBRANCH   3  23
BRANCH   4  26
HETATM   26  C   UNK     0     125.130 129.476 116.577  0.00  0.00     0.089 C 
BRANCH  26  27
HETATM   27  S   UNK     0     125.651 130.307 117.736  0.00  0.00    -0.071 SA
BRANCH  27  28
HETATM   28  C   UNK     0     127.078 130.825 117.690  0.00  0.00     0.190 A 
HETATM   29  N   UNK     0     127.399 132.170 117.012  0.00  0.00    -0.192 NA
HETATM   30  C   UNK     0     128.825 132.688 116.966  0.00  0.00     0.260 A 
HETATM   31  C   UNK     0     130.006 131.852 117.615  0.00  0.00     0.274 A 
HETATM   32  O   UNK     0     129.146 134.033 116.288  0.00  0.00    -0.165 OA
HETATM   33  N   UNK     0     129.685 130.507 118.293  0.00  0.00    -0.136 NA
HETATM   34  O   UNK     0     131.433 132.371 117.569  0.00  0.00    -0.164 OA
HETATM   35  N   UNK     0     128.184 129.998 118.322  0.00  0.00    -0.225 N 
HETATM   36  C   UNK     0     127.864 128.653 119.000  0.00  0.00     0.156 C 
ENDBRANCH  27  28
ENDBRANCH  26  27
ENDBRANCH   4  26
TORSDOF 9
ENDMDL
MODEL 7
REMARK VINA RESULT:      -6.5     34.813     38.458
REMARK  9 active torsions:
REMARK  status: ('A' for Active; 'I' for Inactive)
REMARK    1  A    between atoms: C_3  and  C_21 
REMARK    2  A    between atoms: C_4  and  C_14 
REMARK    3  A    between atoms: C_7  and  N_9 
REMARK       I    between atoms: N_9  and  C_10 
REMARK    4  A    between atoms: C_10  and  C_13 
REMARK    5  A    between atoms: C_13  and  C_15 
REMARK    6  A    between atoms: C_13  and  N_20 
REMARK    7  A    between atoms: C_14  and  S_24 
REMARK    8  A    between atoms: N_20  and  O_35 
REMARK    9  A    between atoms: S_24  and  C_25 
ROOT
HETATM    1  C   UNK     0     128.131 136.543 154.114  0.00  0.00     0.308 A 
HETATM    2  N   UNK     0     128.180 136.318 155.558  0.00  0.00    -0.297 N 
HETATM    3  C   UNK     0     126.847 135.925 156.322  0.00  0.00     0.121 A 
HETATM    4  C   UNK     0     125.538 135.784 155.565  0.00  0.00    -0.002 A 
HETATM    5  C   UNK     0     125.489 136.009 154.120  0.00  0.00     0.065 A 
HETATM    6  S   UNK     0     126.747 136.387 153.357  0.00  0.00    -0.194 SA
HETATM    7  C   UNK     0     129.640 136.848 154.110  0.00  0.00     0.125 A 
HETATM    8  C   UNK     0     129.689 136.623 155.555  0.00  0.00     0.211 A 
HETATM    9  O   UNK     0     130.998 136.764 156.312  0.00  0.00    -0.170 OA
ENDROOT
BRANCH   7  10
HETATM   10  N   UNK     0     130.898 137.225 153.346  0.00  0.00    -0.217 NA
HETATM   11  C   UNK     0     131.272 136.436 152.104  0.00  0.00     0.234 C 
HETATM   12  O   UNK     0     130.432 135.327 151.649  0.00  0.00    -0.167 OA
BRANCH  11  13
HETATM   13  C   UNK     0     132.529 136.814 151.340  0.00  0.00     0.165 C 
BRANCH  13  14
HETATM   14  C   UNK     0     132.694 138.268 150.732  0.00  0.00     0.091 A 
HETATM   15  C   UNK     0     131.731 138.576 149.570  0.00  0.00     0.108 A 
HETATM   16  S   UNK     0     132.043 140.016 149.122  0.00  0.00    -0.072 SA
HETATM   17  C   UNK     0     133.227 140.632 150.018  0.00  0.00     0.456 A 
HETATM   18  N   UNK     0     133.634 139.539 151.025  0.00  0.00    -0.229 NA
HETATM   19  N   UNK     0     133.833 142.041 149.891  0.00  0.00     0.656 N 
ENDBRANCH  13  14
BRANCH  13  20
HETATM   20  N   UNK     0     133.718 135.738 151.136  0.00  0.00    -0.126 NA
BRANCH  20  21
HETATM   21  O   UNK     0     133.398 134.285 150.733  0.00  0.00    -0.234 OA
HETATM   22  C   UNK     0     133.644 133.128 151.719  0.00  0.00     0.211 C 
ENDBRANCH  20  21
ENDBRANCH  13  20
ENDBRANCH  11  13
ENDBRANCH   7  10
BRANCH   3  23
HETATM   23  C   UNK     0     126.899 135.689 157.843  0.00  0.00     0.227 C 
HETATM   24  O   UNK     0     127.214 136.822 158.866  0.00  0.00    -0.643 OA
HETATM   25  O   UNK     0     126.621 134.233 158.406  0.00  0.00    -0.643 OA
ENDBRANCH   3  23
BRANCH   4  26
HETATM   26  C   UNK     0     124.284 135.395 156.405  0.00  0.00     0.089 C 
BRANCH  26  27
HETATM   27  S   UNK     0     123.145 136.399 156.432  0.00  0.00    -0.071 SA
BRANCH  27  28
HETATM   28  C   UNK     0     121.921 136.150 155.569  0.00  0.00     0.190 A 
HETATM   29  N   UNK     0     121.042 134.906 155.799  0.00  0.00    -0.192 NA
HETATM   30  C   UNK     0     119.818 134.657 154.935  0.00  0.00     0.260 A 
HETATM   31  C   UNK     0     119.426 135.674 153.783  0.00  0.00     0.274 A 
HETATM   32  O   UNK     0     118.940 133.414 155.165  0.00  0.00    -0.165 OA
HETATM   33  N   UNK     0     120.305 136.918 153.553  0.00  0.00    -0.136 NA
HETATM   34  O   UNK     0     118.202 135.426 152.920  0.00  0.00    -0.164 OA
HETATM   35  N   UNK     0     121.575 137.145 154.475  0.00  0.00    -0.225 N 
HETATM   36  C   UNK     0     122.453 138.389 154.244  0.00  0.00     0.156 C 
ENDBRANCH  27  28
ENDBRANCH  26  27
ENDBRANCH   4  26
TORSDOF 9
ENDMDL
MODEL 8
REMARK VINA RESULT:      -6.5     42.328     44.645
REMARK  9 active torsions:
REMARK  status: ('A' for Active; 'I' for Inactive)
REMARK    1  A    between atoms: C_3  and  C_21 
REMARK    2  A    between atoms: C_4  and  C_14 
REMARK    3  A    between atoms: C_7  and  N_9 
REMARK       I    between atoms: N_9  and  C_10 
REMARK    4  A    between atoms: C_10  and  C_13 
REMARK    5  A    between atoms: C_13  and  C_15 
REMARK    6  A    between atoms: C_13  and  N_20 
REMARK    7  A    between atoms: C_14  and  S_24 
REMARK    8  A    between atoms: N_20  and  O_35 
REMARK    9  A    between atoms: S_24  and  C_25 
ROOT
HETATM    1  C   UNK     0     154.165 117.723 151.141  0.00  0.00     0.308 A 
HETATM    2  N   UNK     0     154.872 116.749 150.309  0.00  0.00    -0.297 N 
HETATM    3  C   UNK     0     156.044 117.250 149.366  0.00  0.00     0.121 A 
HETATM    4  C   UNK     0     156.427 118.719 149.327  0.00  0.00    -0.002 A 
HETATM    5  C   UNK     0     155.720 119.692 150.159  0.00  0.00     0.065 A 
HETATM    6  S   UNK     0     154.592 119.248 151.074  0.00  0.00    -0.194 SA
HETATM    7  C   UNK     0     153.276 116.597 151.702  0.00  0.00     0.125 A 
HETATM    8  C   UNK     0     153.983 115.624 150.870  0.00  0.00     0.211 A 
HETATM    9  O   UNK     0     153.600 114.155 150.909  0.00  0.00    -0.170 OA
ENDROOT
BRANCH   7  10
HETATM   10  N   UNK     0     152.148 116.153 152.617  0.00  0.00    -0.217 NA
HETATM   11  C   UNK     0     152.460 115.826 154.067  0.00  0.00     0.234 C 
HETATM   12  O   UNK     0     153.827 115.939 154.576  0.00  0.00    -0.167 OA
BRANCH  11  13
HETATM   13  C   UNK     0     151.332 115.382 154.982  0.00  0.00     0.165 C 
BRANCH  13  14
HETATM   14  C   UNK     0     150.783 113.896 154.919  0.00  0.00     0.091 A 
HETATM   15  C   UNK     0     151.777 112.836 155.428  0.00  0.00     0.108 A 
HETATM   16  S   UNK     0     151.068 111.476 155.287  0.00  0.00    -0.072 SA
HETATM   17  C   UNK     0     149.595 111.680 154.676  0.00  0.00     0.456 A 
HETATM   18  N   UNK     0     149.417 113.192 154.446  0.00  0.00    -0.229 NA
HETATM   19  N   UNK     0     148.566 110.574 154.380  0.00  0.00     0.656 N 
ENDBRANCH  13  14
BRANCH  13  20
HETATM   20  N   UNK     0     150.674 116.418 156.036  0.00  0.00    -0.126 NA
BRANCH  20  21
HETATM   21  O   UNK     0     149.626 117.447 155.570  0.00  0.00    -0.234 OA
HETATM   22  C   UNK     0     148.122 117.164 155.745  0.00  0.00     0.211 C 
ENDBRANCH  20  21
ENDBRANCH  13  20
ENDBRANCH  11  13
ENDBRANCH   7  10
BRANCH   3  23
HETATM   23  C   UNK     0     156.789 116.225 148.490  0.00  0.00     0.227 C 
HETATM   24  O   UNK     0     158.190 115.652 148.862  0.00  0.00    -0.643 OA
HETATM   25  O   UNK     0     156.111 115.723 147.147  0.00  0.00    -0.643 OA
ENDBRANCH   3  23
BRANCH   4  26
HETATM   26  C   UNK     0     157.592 119.112 148.368  0.00  0.00     0.089 C 
BRANCH  26  27
HETATM   27  S   UNK     0     157.202 119.782 147.062  0.00  0.00    -0.071 SA
BRANCH  27  28
HETATM   28  C   UNK     0     156.436 118.982 146.023  0.00  0.00     0.190 A 
HETATM   29  N   UNK     0     154.907 118.831 146.126  0.00  0.00    -0.192 NA
HETATM   30  C   UNK     0     154.140 118.032 145.087  0.00  0.00     0.260 A 
HETATM   31  C   UNK     0     154.903 117.340 143.881  0.00  0.00     0.274 A 
HETATM   32  O   UNK     0     152.611 117.881 145.190  0.00  0.00    -0.165 OA
HETATM   33  N   UNK     0     156.432 117.491 143.778  0.00  0.00    -0.136 NA
HETATM   34  O   UNK     0     154.136 116.540 142.842  0.00  0.00    -0.164 OA
HETATM   35  N   UNK     0     157.199 118.333 144.881  0.00  0.00    -0.225 N 
HETATM   36  C   UNK     0     158.728 118.484 144.778  0.00  0.00     0.156 C 
ENDBRANCH  27  28
ENDBRANCH  26  27
ENDBRANCH   4  26
TORSDOF 9
ENDMDL
MODEL 9
REMARK VINA RESULT:      -6.5     26.357     32.048
REMARK  9 active torsions:
REMARK  status: ('A' for Active; 'I' for Inactive)
REMARK    1  A    between atoms: C_3  and  C_21 
REMARK    2  A    between atoms: C_4  and  C_14 
REMARK    3  A    between atoms: C_7  and  N_9 
REMARK       I    between atoms: N_9  and  C_10 
REMARK    4  A    between atoms: C_10  and  C_13 
REMARK    5  A    between atoms: C_13  and  C_15 
REMARK    6  A    between atoms: C_13  and  N_20 
REMARK    7  A    between atoms: C_14  and  S_24 
REMARK    8  A    between atoms: N_20  and  O_35 
REMARK    9  A    between atoms: S_24  and  C_25 
ROOT
HETATM    1  C   UNK     0     141.049 152.991 114.186  0.00  0.00     0.308 A 
HETATM    2  N   UNK     0     142.366 152.822 114.799  0.00  0.00    -0.297 N 
HETATM    3  C   UNK     0     142.717 151.445 115.503  0.00  0.00     0.121 A 
HETATM    4  C   UNK     0     141.700 150.318 115.539  0.00  0.00    -0.002 A 
HETATM    5  C   UNK     0     140.382 150.487 114.926  0.00  0.00     0.065 A 
HETATM    6  S   UNK     0     140.013 151.792 114.243  0.00  0.00    -0.194 SA
HETATM    7  C   UNK     0     141.430 154.422 113.763  0.00  0.00     0.125 A 
HETATM    8  C   UNK     0     142.747 154.253 114.377  0.00  0.00     0.211 A 
HETATM    9  O   UNK     0     143.764 155.380 114.340  0.00  0.00    -0.170 OA
ENDROOT
BRANCH   7  10
HETATM   10  N   UNK     0     141.060 155.728 113.081  0.00  0.00    -0.217 NA
HETATM   11  C   UNK     0     140.015 156.625 113.720  0.00  0.00     0.234 C 
HETATM   12  O   UNK     0     139.373 156.236 114.977  0.00  0.00    -0.167 OA
BRANCH  11  13
HETATM   13  C   UNK     0     139.645 157.930 113.038  0.00  0.00     0.165 C 
BRANCH  13  14
HETATM   14  C   UNK     0     140.722 159.080 112.866  0.00  0.00     0.091 A 
HETATM   15  C   UNK     0     140.258 160.247 111.974  0.00  0.00     0.108 A 
HETATM   16  S   UNK     0     141.428 161.248 111.931  0.00  0.00    -0.072 SA
HETATM   17  C   UNK     0     142.657 160.704 112.813  0.00  0.00     0.456 A 
HETATM   18  N   UNK     0     142.216 159.349 113.397  0.00  0.00    -0.229 NA
HETATM   19  N   UNK     0     144.010 161.406 113.028  0.00  0.00     0.656 N 
ENDBRANCH  13  14
BRANCH  13  20
HETATM   20  N   UNK     0     138.147 158.166 112.477  0.00  0.00    -0.126 NA
BRANCH  20  21
HETATM   21  O   UNK     0     137.679 157.475 111.182  0.00  0.00    -0.234 OA
HETATM   22  C   UNK     0     136.178 157.281 110.898  0.00  0.00     0.211 C 
ENDBRANCH  20  21
ENDBRANCH  13  20
ENDBRANCH  11  13
ENDBRANCH   7  10
BRANCH   3  23
HETATM   23  C   UNK     0     144.103 151.267 116.149  0.00  0.00     0.227 C 
HETATM   24  O   UNK     0     144.503 151.942 117.496  0.00  0.00    -0.643 OA
HETATM   25  O   UNK     0     145.180 150.359 115.422  0.00  0.00    -0.643 OA
ENDBRANCH   3  23
BRANCH   4  26
HETATM   26  C   UNK     0     142.139 149.003 116.254  0.00  0.00     0.089 C 
BRANCH  26  27
HETATM   27  S   UNK     0     142.086 147.729 115.429  0.00  0.00    -0.071 SA
BRANCH  27  28
HETATM   28  C   UNK     0     143.371 146.962 115.172  0.00  0.00     0.190 A 
HETATM   29  N   UNK     0     144.196 147.224 113.898  0.00  0.00    -0.192 NA
HETATM   30  C   UNK     0     145.481 146.458 113.642  0.00  0.00     0.260 A 
HETATM   31  C   UNK     0     145.993 145.376 114.682  0.00  0.00     0.274 A 
HETATM   32  O   UNK     0     146.306 146.719 112.368  0.00  0.00    -0.165 OA
HETATM   33  N   UNK     0     145.169 145.114 115.956  0.00  0.00    -0.136 NA
HETATM   34  O   UNK     0     147.279 144.609 114.425  0.00  0.00    -0.164 OA
HETATM   35  N   UNK     0     143.832 145.934 116.190  0.00  0.00    -0.225 N 
HETATM   36  C   UNK     0     143.007 145.672 117.464  0.00  0.00     0.156 C 
ENDBRANCH  27  28
ENDBRANCH  26  27
ENDBRANCH   4  26
TORSDOF 9
ENDMDL
MODEL 10
REMARK VINA RESULT:      -6.4     43.259     45.452
REMARK  9 active torsions:
REMARK  status: ('A' for Active; 'I' for Inactive)
REMARK    1  A    between atoms: C_3  and  C_21 
REMARK    2  A    between atoms: C_4  and  C_14 
REMARK    3  A    between atoms: C_7  and  N_9 
REMARK       I    between atoms: N_9  and  C_10 
REMARK    4  A    between atoms: C_10  and  C_13 
REMARK    5  A    between atoms: C_13  and  C_15 
REMARK    6  A    between atoms: C_13  and  N_20 
REMARK    7  A    between atoms: C_14  and  S_24 
REMARK    8  A    between atoms: N_20  and  O_35 
REMARK    9  A    between atoms: S_24  and  C_25 
ROOT
HETATM    1  C   UNK     0     154.418 118.537 152.281  0.00  0.00     0.308 A 
HETATM    2  N   UNK     0     155.752 117.996 152.020  0.00  0.00    -0.297 N 
HETATM    3  C   UNK     0     156.667 118.695 150.930  0.00  0.00     0.121 A 
HETATM    4  C   UNK     0     156.166 119.909 150.168  0.00  0.00    -0.002 A 
HETATM    5  C   UNK     0     154.832 120.450 150.429  0.00  0.00     0.065 A 
HETATM    6  S   UNK     0     153.929 119.806 151.466  0.00  0.00    -0.194 SA
HETATM    7  C   UNK     0     154.182 117.444 153.340  0.00  0.00     0.125 A 
HETATM    8  C   UNK     0     155.516 116.903 153.079  0.00  0.00     0.211 A 
HETATM    9  O   UNK     0     156.018 115.689 153.842  0.00  0.00    -0.170 OA
ENDROOT
BRANCH   7  10
HETATM   10  N   UNK     0     153.280 116.799 154.377  0.00  0.00    -0.217 NA
HETATM   11  C   UNK     0     151.882 116.365 153.971  0.00  0.00     0.234 C 
HETATM   12  O   UNK     0     151.412 116.564 152.600  0.00  0.00    -0.167 OA
BRANCH  11  13
HETATM   13  C   UNK     0     150.979 115.720 155.009  0.00  0.00     0.165 C 
BRANCH  13  14
HETATM   14  C   UNK     0     151.227 114.224 155.472  0.00  0.00     0.091 A 
HETATM   15  C   UNK     0     150.498 113.173 154.614  0.00  0.00     0.108 A 
HETATM   16  S   UNK     0     150.859 111.801 155.214  0.00  0.00    -0.072 SA
HETATM   17  C   UNK     0     151.835 111.989 156.478  0.00  0.00     0.456 A 
HETATM   18  N   UNK     0     152.065 113.503 156.639  0.00  0.00    -0.229 NA
HETATM   19  N   UNK     0     152.424 110.868 157.354  0.00  0.00     0.656 N 
ENDBRANCH  13  14
BRANCH  13  20
HETATM   20  N   UNK     0     149.752 116.550 155.657  0.00  0.00    -0.126 NA
BRANCH  20  21
HETATM   21  O   UNK     0     148.669 115.828 156.481  0.00  0.00    -0.234 OA
HETATM   22  C   UNK     0     147.519 115.083 155.779  0.00  0.00     0.211 C 
ENDBRANCH  20  21
ENDBRANCH  13  20
ENDBRANCH  11  13
ENDBRANCH   7  10
BRANCH   3  23
HETATM   23  C   UNK     0     158.071 118.126 150.655  0.00  0.00     0.227 C 
HETATM   24  O   UNK     0     159.357 118.671 151.349  0.00  0.00    -0.643 OA
HETATM   25  O   UNK     0     158.230 116.933 149.623  0.00  0.00    -0.643 OA
ENDBRANCH   3  23
BRANCH   4  26
HETATM   26  C   UNK     0     157.139 120.525 149.116  0.00  0.00     0.089 C 
BRANCH  26  27
HETATM   27  S   UNK     0     156.930 120.110 147.671  0.00  0.00    -0.071 SA
BRANCH  27  28
HETATM   28  C   UNK     0     157.386 121.043 146.562  0.00  0.00     0.190 A 
HETATM   29  N   UNK     0     158.481 122.093 146.826  0.00  0.00    -0.192 NA
HETATM   30  C   UNK     0     158.937 123.026 145.718  0.00  0.00     0.260 A 
HETATM   31  C   UNK     0     158.292 122.933 144.273  0.00  0.00     0.274 A 
HETATM   32  O   UNK     0     160.033 124.075 145.982  0.00  0.00    -0.165 OA
HETATM   33  N   UNK     0     157.196 121.884 144.009  0.00  0.00    -0.136 NA
HETATM   34  O   UNK     0     158.747 123.866 143.164  0.00  0.00    -0.164 OA
HETATM   35  N   UNK     0     156.746 120.927 145.190  0.00  0.00    -0.225 N 
HETATM   36  C   UNK     0     155.650 119.877 144.926  0.00  0.00     0.156 C 
ENDBRANCH  27  28
ENDBRANCH  26  27
ENDBRANCH   4  26
TORSDOF 9
ENDMDL
