MODEL 1
REMARK VINA RESULT:      -7.8      0.000      0.000
REMARK  1 active torsions:
REMARK  status: ('A' for Active; 'I' for Inactive)
REMARK    1  A    between atoms: N_7  and  C_15 
ROOT
HETATM    1 Cl   UNK     0     125.914 126.888 121.018  0.00  0.00    -0.143 Cl
HETATM    2  O   UNK     0     125.973 131.842 115.361  0.00  0.00    -0.168 OA
HETATM    3  N   UNK     0     125.990 129.460 116.423  0.00  0.00    -0.223 NA
HETATM    4  N   UNK     0     125.875 131.214 119.404  0.00  0.00    -0.240 NA
HETATM    5  C   UNK     0     125.939 128.467 119.014  0.00  0.00     0.042 A 
HETATM    6  C   UNK     0     125.983 128.339 117.479  0.00  0.00     0.064 A 
HETATM    7  C   UNK     0     125.890 129.745 119.870  0.00  0.00     0.080 A 
HETATM    8  C   UNK     0     125.853 129.528 121.394  0.00  0.00     0.001 A 
HETATM    9  C   UNK     0     125.938 127.162 119.948  0.00  0.00     0.067 A 
HETATM   10  C   UNK     0     126.031 126.900 116.773  0.00  0.00     0.052 A 
HETATM   11  C   UNK     0     125.903 131.765 117.966  0.00  0.00     0.146 A 
HETATM   12  C   UNK     0     125.985 125.708 119.275  0.00  0.00     0.114 A 
HETATM   13  C   UNK     0     125.955 130.985 116.640  0.00  0.00     0.232 A 
HETATM   14  C   UNK     0     126.031 125.575 117.678  0.00  0.00     0.058 A 
HETATM   15  C   UNK     0     125.865 128.099 121.969  0.00  0.00     0.022 A 
HETATM   16  C   UNK     0     125.803 130.740 122.344  0.00  0.00     0.028 A 
HETATM   17  C   UNK     0     125.827 127.882 123.493  0.00  0.00     0.037 A 
HETATM   18  C   UNK     0     125.766 130.521 123.868  0.00  0.00     0.005 A 
HETATM   19  C   UNK     0     125.778 129.093 124.442  0.00  0.00     0.006 A 
ENDROOT
BRANCH  12  20
HETATM   20  N   UNK     0     125.985 124.445 120.158  0.00  0.00    -0.117 N 
HETATM   21  O   UNK     0     124.661 123.725 120.472  0.00  0.00    -0.532 OA
HETATM   22  O   UNK     0     127.310 123.904 120.726  0.00  0.00    -0.532 OA
ENDBRANCH  12  20
TORSDOF 1
ENDMDL
MODEL 2
REMARK VINA RESULT:      -7.5      3.651      7.093
REMARK  1 active torsions:
REMARK  status: ('A' for Active; 'I' for Inactive)
REMARK    1  A    between atoms: N_7  and  C_15 
ROOT
HETATM    1 Cl   UNK     0     125.887 127.665 122.224  0.00  0.00    -0.143 Cl
HETATM    2  O   UNK     0     121.957 121.255 122.150  0.00  0.00    -0.168 OA
HETATM    3  N   UNK     0     122.948 123.412 123.229  0.00  0.00    -0.223 NA
HETATM    4  N   UNK     0     124.256 123.923 120.067  0.00  0.00    -0.240 NA
HETATM    5  C   UNK     0     124.525 125.510 122.328  0.00  0.00     0.042 A 
HETATM    6  C   UNK     0     123.717 124.737 123.387  0.00  0.00     0.064 A 
HETATM    7  C   UNK     0     124.765 125.148 120.851  0.00  0.00     0.080 A 
HETATM    8  C   UNK     0     125.629 126.141 120.051  0.00  0.00     0.001 A 
HETATM    9  C   UNK     0     125.259 126.888 122.697  0.00  0.00     0.067 A 
HETATM   10  C   UNK     0     123.586 125.289 124.887  0.00  0.00     0.052 A 
HETATM   11  C   UNK     0     123.381 122.759 120.567  0.00  0.00     0.146 A 
HETATM   12  C   UNK     0     125.150 127.468 124.187  0.00  0.00     0.114 A 
HETATM   13  C   UNK     0     122.799 122.531 121.974  0.00  0.00     0.232 A 
HETATM   14  C   UNK     0     124.308 126.664 125.290  0.00  0.00     0.058 A 
HETATM   15  C   UNK     0     126.190 127.400 120.737  0.00  0.00     0.022 A 
HETATM   16  C   UNK     0     125.931 125.875 118.564  0.00  0.00     0.028 A 
HETATM   17  C   UNK     0     127.053 128.393 119.938  0.00  0.00     0.037 A 
HETATM   18  C   UNK     0     126.795 126.869 117.765  0.00  0.00     0.005 A 
HETATM   19  C   UNK     0     127.355 128.127 118.452  0.00  0.00     0.006 A 
ENDROOT
BRANCH  12  20
HETATM   20  N   UNK     0     125.849 128.790 124.558  0.00  0.00    -0.117 N 
HETATM   21  O   UNK     0     127.150 128.768 125.381  0.00  0.00    -0.532 OA
HETATM   22  O   UNK     0     125.246 130.132 124.105  0.00  0.00    -0.532 OA
ENDBRANCH  12  20
TORSDOF 1
ENDMDL
MODEL 3
REMARK VINA RESULT:      -7.3     25.985     28.326
REMARK  1 active torsions:
REMARK  status: ('A' for Active; 'I' for Inactive)
REMARK    1  A    between atoms: N_7  and  C_15 
ROOT
HETATM    1 Cl   UNK     0     141.209 138.373  98.860  0.00  0.00    -0.143 Cl
HETATM    2  O   UNK     0     135.591 139.766  94.060  0.00  0.00    -0.168 OA
HETATM    3  N   UNK     0     137.853 140.252  95.262  0.00  0.00    -0.223 NA
HETATM    4  N   UNK     0     137.183 137.272  96.887  0.00  0.00    -0.240 NA
HETATM    5  C   UNK     0     139.365 138.958  97.196  0.00  0.00     0.042 A 
HETATM    6  C   UNK     0     139.065 140.093  96.199  0.00  0.00     0.064 A 
HETATM    7  C   UNK     0     138.528 137.703  97.502  0.00  0.00     0.080 A 
HETATM    8  C   UNK     0     139.112 136.752  98.564  0.00  0.00     0.001 A 
HETATM    9  C   UNK     0     140.698 138.978  98.090  0.00  0.00     0.067 A 
HETATM   10  C   UNK     0     140.076 141.326  96.027  0.00  0.00     0.052 A 
HETATM   11  C   UNK     0     136.344 137.990  95.814  0.00  0.00     0.146 A 
HETATM   12  C   UNK     0     141.730 140.196  97.943  0.00  0.00     0.114 A 
HETATM   13  C   UNK     0     136.642 139.316  95.091  0.00  0.00     0.232 A 
HETATM   14  C   UNK     0     141.418 141.378  96.904  0.00  0.00     0.058 A 
HETATM   15  C   UNK     0     140.453 137.087  99.243  0.00  0.00     0.022 A 
HETATM   16  C   UNK     0     138.355 135.466  98.946  0.00  0.00     0.028 A 
HETATM   17  C   UNK     0     141.037 136.137 100.305  0.00  0.00     0.037 A 
HETATM   18  C   UNK     0     138.940 134.516 100.008  0.00  0.00     0.005 A 
HETATM   19  C   UNK     0     140.280 134.851 100.687  0.00  0.00     0.006 A 
ENDROOT
BRANCH  12  20
HETATM   20  N   UNK     0     143.014 140.230  98.793  0.00  0.00    -0.117 N 
HETATM   21  O   UNK     0     143.087 141.128 100.042  0.00  0.00    -0.532 OA
HETATM   22  O   UNK     0     144.225 139.366  98.394  0.00  0.00    -0.532 OA
ENDBRANCH  12  20
TORSDOF 1
ENDMDL
MODEL 4
REMARK VINA RESULT:      -7.2     31.524     34.739
REMARK  1 active torsions:
REMARK  status: ('A' for Active; 'I' for Inactive)
REMARK    1  A    between atoms: N_7  and  C_15 
ROOT
HETATM    1 Cl   UNK     0     115.068 116.723 149.713  0.00  0.00    -0.143 Cl
HETATM    2  O   UNK     0     107.678 115.343 149.558  0.00  0.00    -0.168 OA
HETATM    3  N   UNK     0     110.074 115.294 150.584  0.00  0.00    -0.223 NA
HETATM    4  N   UNK     0     110.935 116.947 147.668  0.00  0.00    -0.240 NA
HETATM    5  C   UNK     0     112.572 116.196 149.779  0.00  0.00     0.042 A 
HETATM    6  C   UNK     0     111.591 115.510 150.748  0.00  0.00     0.064 A 
HETATM    7  C   UNK     0     112.281 116.836 148.409  0.00  0.00     0.080 A 
HETATM    8  C   UNK     0     113.495 117.444 147.684  0.00  0.00     0.001 A 
HETATM    9  C   UNK     0     114.131 116.321 150.139  0.00  0.00     0.067 A 
HETATM   10  C   UNK     0     112.099 114.902 152.142  0.00  0.00     0.052 A 
HETATM   11  C   UNK     0     109.549 116.446 148.115  0.00  0.00     0.146 A 
HETATM   12  C   UNK     0     114.673 115.724 151.525  0.00  0.00     0.114 A 
HETATM   13  C   UNK     0     109.166 115.711 149.412  0.00  0.00     0.232 A 
HETATM   14  C   UNK     0     113.651 115.009 152.533  0.00  0.00     0.058 A 
HETATM   15  C   UNK     0     114.889 117.388 148.335  0.00  0.00     0.022 A 
HETATM   16  C   UNK     0     113.315 118.109 146.306  0.00  0.00     0.028 A 
HETATM   17  C   UNK     0     116.104 117.997 147.610  0.00  0.00     0.037 A 
HETATM   18  C   UNK     0     114.530 118.718 145.581  0.00  0.00     0.005 A 
HETATM   19  C   UNK     0     115.924 118.661 146.233  0.00  0.00     0.006 A 
ENDROOT
BRANCH  12  20
HETATM   20  N   UNK     0     116.167 115.835 151.885  0.00  0.00    -0.117 N 
HETATM   21  O   UNK     0     117.145 114.720 151.469  0.00  0.00    -0.532 OA
HETATM   22  O   UNK     0     116.682 117.061 152.661  0.00  0.00    -0.532 OA
ENDBRANCH  12  20
TORSDOF 1
ENDMDL
MODEL 5
REMARK VINA RESULT:      -6.8     28.631     31.004
REMARK  1 active torsions:
REMARK  status: ('A' for Active; 'I' for Inactive)
REMARK    1  A    between atoms: N_7  and  C_15 
ROOT
HETATM    1 Cl   UNK     0     107.570 146.455 133.478  0.00  0.00    -0.143 Cl
HETATM    2  O   UNK     0     100.165 146.580 134.783  0.00  0.00    -0.168 OA
HETATM    3  N   UNK     0     102.665 146.125 135.368  0.00  0.00    -0.223 NA
HETATM    4  N   UNK     0     103.230 147.357 132.185  0.00  0.00    -0.240 NA
HETATM    5  C   UNK     0     105.081 146.446 134.041  0.00  0.00     0.042 A 
HETATM    6  C   UNK     0     104.198 146.043 135.237  0.00  0.00     0.064 A 
HETATM    7  C   UNK     0     104.651 147.031 132.684  0.00  0.00     0.080 A 
HETATM    8  C   UNK     0     105.791 147.330 131.693  0.00  0.00     0.001 A 
HETATM    9  C   UNK     0     106.676 146.281 134.104  0.00  0.00     0.067 A 
HETATM   10  C   UNK     0     104.847 145.446 136.576  0.00  0.00     0.052 A 
HETATM   11  C   UNK     0     101.890 147.178 132.921  0.00  0.00     0.146 A 
HETATM   12  C   UNK     0     107.358 145.688 135.428  0.00  0.00     0.114 A 
HETATM   13  C   UNK     0     101.638 146.630 134.338  0.00  0.00     0.232 A 
HETATM   14  C   UNK     0     106.438 145.267 136.672  0.00  0.00     0.058 A 
HETATM   15  C   UNK     0     107.251 147.041 132.090  0.00  0.00     0.022 A 
HETATM   16  C   UNK     0     105.472 147.917 130.305  0.00  0.00     0.028 A 
HETATM   17  C   UNK     0     108.392 147.340 131.099  0.00  0.00     0.037 A 
HETATM   18  C   UNK     0     106.614 148.215 129.315  0.00  0.00     0.005 A 
HETATM   19  C   UNK     0     108.073 147.927 129.712  0.00  0.00     0.006 A 
ENDROOT
BRANCH  12  20
HETATM   20  N   UNK     0     108.888 145.522 135.504  0.00  0.00    -0.117 N 
HETATM   21  O   UNK     0     109.573 144.352 134.774  0.00  0.00    -0.532 OA
HETATM   22  O   UNK     0     109.731 146.528 136.310  0.00  0.00    -0.532 OA
ENDBRANCH  12  20
TORSDOF 1
ENDMDL
MODEL 6
REMARK VINA RESULT:      -6.6      4.066      6.155
REMARK  1 active torsions:
REMARK  status: ('A' for Active; 'I' for Inactive)
REMARK    1  A    between atoms: N_7  and  C_15 
ROOT
HETATM    1 Cl   UNK     0     123.405 124.282 122.975  0.00  0.00    -0.143 Cl
HETATM    2  O   UNK     0     124.898 129.180 117.468  0.00  0.00    -0.168 OA
HETATM    3  N   UNK     0     124.768 128.367 119.941  0.00  0.00    -0.223 NA
HETATM    4  N   UNK     0     123.530 125.468 118.514  0.00  0.00    -0.240 NA
HETATM    5  C   UNK     0     123.953 126.031 121.199  0.00  0.00     0.042 A 
HETATM    6  C   UNK     0     124.510 127.467 121.164  0.00  0.00     0.064 A 
HETATM    7  C   UNK     0     123.517 125.142 120.020  0.00  0.00     0.080 A 
HETATM    8  C   UNK     0     122.999 123.741 120.395  0.00  0.00     0.001 A 
HETATM    9  C   UNK     0     123.756 125.257 122.591  0.00  0.00     0.067 A 
HETATM   10  C   UNK     0     124.909 128.228 122.519  0.00  0.00     0.052 A 
HETATM   11  C   UNK     0     123.982 126.764 117.817  0.00  0.00     0.146 A 
HETATM   12  C   UNK     0     124.145 125.989 123.964  0.00  0.00     0.114 A 
HETATM   13  C   UNK     0     124.533 128.054 118.452  0.00  0.00     0.232 A 
HETATM   14  C   UNK     0     124.725 127.484 123.927  0.00  0.00     0.058 A 
HETATM   15  C   UNK     0     122.943 123.311 121.873  0.00  0.00     0.022 A 
HETATM   16  C   UNK     0     122.537 122.769 119.293  0.00  0.00     0.028 A 
HETATM   17  C   UNK     0     122.426 121.910 122.249  0.00  0.00     0.037 A 
HETATM   18  C   UNK     0     122.019 121.368 119.669  0.00  0.00     0.005 A 
HETATM   19  C   UNK     0     121.964 120.939 121.146  0.00  0.00     0.006 A 
ENDROOT
BRANCH  12  20
HETATM   20  N   UNK     0     123.963 125.260 125.309  0.00  0.00    -0.117 N 
HETATM   21  O   UNK     0     125.086 124.359 125.855  0.00  0.00    -0.532 OA
HETATM   22  O   UNK     0     122.658 125.433 126.107  0.00  0.00    -0.532 OA
ENDBRANCH  12  20
TORSDOF 1
ENDMDL
MODEL 7
REMARK VINA RESULT:      -6.6     23.818     27.558
REMARK  1 active torsions:
REMARK  status: ('A' for Active; 'I' for Inactive)
REMARK    1  A    between atoms: N_7  and  C_15 
ROOT
HETATM    1 Cl   UNK     0     138.759 139.861  97.142  0.00  0.00    -0.143 Cl
HETATM    2  O   UNK     0     137.588 134.179 101.927  0.00  0.00    -0.168 OA
HETATM    3  N   UNK     0     139.022 135.950 100.661  0.00  0.00    -0.223 NA
HETATM    4  N   UNK     0     135.988 136.825  99.246  0.00  0.00    -0.240 NA
HETATM    5  C   UNK     0     138.492 137.933  98.793  0.00  0.00     0.042 A 
HETATM    6  C   UNK     0     139.405 137.107  99.718  0.00  0.00     0.064 A 
HETATM    7  C   UNK     0     136.972 137.808  98.583  0.00  0.00     0.080 A 
HETATM    8  C   UNK     0     136.353 138.796  97.577  0.00  0.00     0.001 A 
HETATM    9  C   UNK     0     139.092 139.108  97.879  0.00  0.00     0.067 A 
HETATM   10  C   UNK     0     140.981 137.397  99.793  0.00  0.00     0.052 A 
HETATM   11  C   UNK     0     136.282 135.725 100.282  0.00  0.00     0.146 A 
HETATM   12  C   UNK     0     140.663 139.425  97.930  0.00  0.00     0.114 A 
HETATM   13  C   UNK     0     137.633 135.336 100.912  0.00  0.00     0.232 A 
HETATM   14  C   UNK     0     141.613 138.564  98.893  0.00  0.00     0.058 A 
HETATM   15  C   UNK     0     137.246 139.823  96.856  0.00  0.00     0.022 A 
HETATM   16  C   UNK     0     134.839 138.757  97.291  0.00  0.00     0.028 A 
HETATM   17  C   UNK     0     136.627 140.811  95.850  0.00  0.00     0.037 A 
HETATM   18  C   UNK     0     134.220 139.746  96.285  0.00  0.00     0.005 A 
HETATM   19  C   UNK     0     135.114 140.772  95.565  0.00  0.00     0.006 A 
ENDROOT
BRANCH  12  20
HETATM   20  N   UNK     0     141.255 140.549  97.059  0.00  0.00    -0.117 N 
HETATM   21  O   UNK     0     141.935 141.761  97.724  0.00  0.00    -0.532 OA
HETATM   22  O   UNK     0     141.167 140.461  95.525  0.00  0.00    -0.532 OA
ENDBRANCH  12  20
TORSDOF 1
ENDMDL
MODEL 8
REMARK VINA RESULT:      -6.5     21.387     23.334
REMARK  1 active torsions:
REMARK  status: ('A' for Active; 'I' for Inactive)
REMARK    1  A    between atoms: N_7  and  C_15 
ROOT
HETATM    1 Cl   UNK     0     137.636 135.352 100.710  0.00  0.00    -0.143 Cl
HETATM    2  O   UNK     0     134.006 140.380 104.964  0.00  0.00    -0.168 OA
HETATM    3  N   UNK     0     135.786 138.539 104.473  0.00  0.00    -0.223 NA
HETATM    4  N   UNK     0     134.395 138.586 101.305  0.00  0.00    -0.240 NA
HETATM    5  C   UNK     0     136.483 137.024 102.255  0.00  0.00     0.042 A 
HETATM    6  C   UNK     0     136.613 137.479 103.721  0.00  0.00     0.064 A 
HETATM    7  C   UNK     0     135.497 137.517 101.180  0.00  0.00     0.080 A 
HETATM    8  C   UNK     0     135.629 136.853  99.797  0.00  0.00     0.001 A 
HETATM    9  C   UNK     0     137.451 135.893 101.656  0.00  0.00     0.067 A 
HETATM   10  C   UNK     0     137.718 136.835 104.689  0.00  0.00     0.052 A 
HETATM   11  C   UNK     0     134.008 139.427 102.536  0.00  0.00     0.146 A 
HETATM   12  C   UNK     0     138.567 135.228 102.595  0.00  0.00     0.114 A 
HETATM   13  C   UNK     0     134.627 139.406 103.946  0.00  0.00     0.232 A 
HETATM   14  C   UNK     0     138.701 135.702 104.122  0.00  0.00     0.058 A 
HETATM   15  C   UNK     0     136.699 135.770  99.562  0.00  0.00     0.022 A 
HETATM   16  C   UNK     0     134.691 137.271  98.649  0.00  0.00     0.028 A 
HETATM   17  C   UNK     0     136.831 135.106  98.179  0.00  0.00     0.037 A 
HETATM   18  C   UNK     0     134.824 136.606  97.266  0.00  0.00     0.005 A 
HETATM   19  C   UNK     0     135.893 135.524  97.031  0.00  0.00     0.006 A 
ENDROOT
BRANCH  12  20
HETATM   20  N   UNK     0     139.504 134.141 102.035  0.00  0.00    -0.117 N 
HETATM   21  O   UNK     0     139.232 132.657 102.343  0.00  0.00    -0.532 OA
HETATM   22  O   UNK     0     140.713 134.539 101.169  0.00  0.00    -0.532 OA
ENDBRANCH  12  20
TORSDOF 1
ENDMDL
MODEL 9
REMARK VINA RESULT:      -6.5     31.123     33.930
REMARK  1 active torsions:
REMARK  status: ('A' for Active; 'I' for Inactive)
REMARK    1  A    between atoms: N_7  and  C_15 
ROOT
HETATM    1 Cl   UNK     0     113.417 151.139  97.937  0.00  0.00    -0.143 Cl
HETATM    2  O   UNK     0     115.280 144.494  94.951  0.00  0.00    -0.168 OA
HETATM    3  N   UNK     0     114.444 146.093  96.834  0.00  0.00    -0.223 NA
HETATM    4  N   UNK     0     114.923 148.538  94.433  0.00  0.00    -0.240 NA
HETATM    5  C   UNK     0     114.018 148.827  97.040  0.00  0.00     0.042 A 
HETATM    6  C   UNK     0     114.031 147.381  97.570  0.00  0.00     0.064 A 
HETATM    7  C   UNK     0     114.415 149.342  95.645  0.00  0.00     0.080 A 
HETATM    8  C   UNK     0     114.287 150.862  95.432  0.00  0.00     0.001 A 
HETATM    9  C   UNK     0     113.548 150.043  97.976  0.00  0.00     0.067 A 
HETATM   10  C   UNK     0     113.575 147.050  99.072  0.00  0.00     0.052 A 
HETATM   11  C   UNK     0     115.160 147.021  94.318  0.00  0.00     0.146 A 
HETATM   12  C   UNK     0     113.085 149.748  99.483  0.00  0.00     0.114 A 
HETATM   13  C   UNK     0     114.947 145.932  95.387  0.00  0.00     0.232 A 
HETATM   14  C   UNK     0     113.099 148.242 100.034  0.00  0.00     0.058 A 
HETATM   15  C   UNK     0     113.788 151.761  96.578  0.00  0.00     0.022 A 
HETATM   16  C   UNK     0     114.658 151.483  94.071  0.00  0.00     0.028 A 
HETATM   17  C   UNK     0     113.660 153.281  96.365  0.00  0.00     0.037 A 
HETATM   18  C   UNK     0     114.530 153.003  93.859  0.00  0.00     0.005 A 
HETATM   19  C   UNK     0     114.031 153.901  95.005  0.00  0.00     0.006 A 
ENDROOT
BRANCH  12  20
HETATM   20  N   UNK     0     112.630 150.903 100.395  0.00  0.00    -0.117 N 
HETATM   21  O   UNK     0     113.652 151.618 101.298  0.00  0.00    -0.532 OA
HETATM   22  O   UNK     0     111.155 151.343 100.402  0.00  0.00    -0.532 OA
ENDBRANCH  12  20
TORSDOF 1
ENDMDL
MODEL 10
REMARK VINA RESULT:      -6.5     21.446     24.454
REMARK  1 active torsions:
REMARK  status: ('A' for Active; 'I' for Inactive)
REMARK    1  A    between atoms: N_7  and  C_15 
ROOT
HETATM    1 Cl   UNK     0     137.245 135.796 101.684  0.00  0.00    -0.143 Cl
HETATM    2  O   UNK     0     139.216 140.589  96.235  0.00  0.00    -0.168 OA
HETATM    3  N   UNK     0     139.625 138.719  98.006  0.00  0.00    -0.223 NA
HETATM    4  N   UNK     0     136.245 139.110  98.629  0.00  0.00    -0.240 NA
HETATM    5  C   UNK     0     138.039 137.376  99.844  0.00  0.00     0.042 A 
HETATM    6  C   UNK     0     139.363 137.693  99.124  0.00  0.00     0.064 A 
HETATM    7  C   UNK     0     136.651 138.007  99.624  0.00  0.00     0.080 A 
HETATM    8  C   UNK     0     135.521 137.462 100.517  0.00  0.00     0.001 A 
HETATM    9  C   UNK     0     137.974 136.260 100.995  0.00  0.00     0.067 A 
HETATM   10  C   UNK     0     140.713 136.916  99.504  0.00  0.00     0.052 A 
HETATM   11  C   UNK     0     137.125 139.855  97.609  0.00  0.00     0.146 A 
HETATM   12  C   UNK     0     139.306 135.463 101.400  0.00  0.00     0.114 A 
HETATM   13  C   UNK     0     138.630 139.681  97.332  0.00  0.00     0.232 A 
HETATM   14  C   UNK     0     140.684 135.793 100.649  0.00  0.00     0.058 A 
HETATM   15  C   UNK     0     135.817 136.357 101.547  0.00  0.00     0.022 A 
HETATM   16  C   UNK     0     134.093 138.024 100.379  0.00  0.00     0.028 A 
HETATM   17  C   UNK     0     134.687 135.812 102.440  0.00  0.00     0.037 A 
HETATM   18  C   UNK     0     132.962 137.478 101.272  0.00  0.00     0.005 A 
HETATM   19  C   UNK     0     133.260 136.373 102.302  0.00  0.00     0.006 A 
ENDROOT
BRANCH  12  20
HETATM   20  N   UNK     0     139.261 134.388 102.502  0.00  0.00    -0.117 N 
HETATM   21  O   UNK     0     139.213 132.897 102.122  0.00  0.00    -0.532 OA
HETATM   22  O   UNK     0     139.263 134.806 103.984  0.00  0.00    -0.532 OA
ENDBRANCH  12  20
TORSDOF 1
ENDMDL
