MODEL 1
REMARK VINA RESULT:      -8.0      0.000      0.000
REMARK  7 active torsions:
REMARK  status: ('A' for Active; 'I' for Inactive)
REMARK    1  A    between atoms: N_3  and  C_7 
REMARK    2  A    between atoms: N_4  and  C_10 
REMARK    3  A    between atoms: C_7  and  C_11 
REMARK    4  A    between atoms: C_7  and  C_12 
REMARK    5  A    between atoms: C_10  and  C_13 
REMARK    6  A    between atoms: C_13  and  C_22 
REMARK    7  A    between atoms: C_22  and  C_25 
ROOT
HETATM    1  N   UNK     0     110.931 161.322 123.983  0.00  0.00    -0.345 N 
HETATM    2  N   UNK     0     112.399 159.123 125.563  0.00  0.00    -0.365 N 
HETATM    3  C   UNK     0     110.181 160.518 125.061  0.00  0.00     0.125 A 
HETATM    4  C   UNK     0     112.414 161.027 123.696  0.00  0.00     0.125 A 
HETATM    5  C   UNK     0     110.915 159.419 125.852  0.00  0.00     0.122 A 
HETATM    6  C   UNK     0     113.148 159.928 124.486  0.00  0.00     0.122 A 
ENDROOT
BRANCH   1   7
HETATM    7  C   UNK     0     110.197 162.422 123.193  0.00  0.00     0.040 C 
BRANCH   7   8
HETATM    8  C   UNK     0     110.265 163.886 123.667  0.00  0.00    -0.029 A 
HETATM    9  C   UNK     0     110.824 164.973 122.731  0.00  0.00     0.030 A 
HETATM   10  C   UNK     0     110.892 166.437 123.204  0.00  0.00     0.056 A 
HETATM   11  C   UNK     0     110.401 166.813 124.614  0.00  0.00     0.096 A 
HETATM   12  F   UNK     0     110.468 168.277 125.088  0.00  0.00    -0.213 F 
HETATM   13  C   UNK     0     109.841 165.726 125.550  0.00  0.00     0.056 A 
HETATM   14  C   UNK     0     109.774 164.262 125.077  0.00  0.00     0.030 A 
ENDBRANCH   7   8
BRANCH   7  15
HETATM   15  C   UNK     0     109.396 162.058 121.930  0.00  0.00    -0.029 A 
HETATM   16  C   UNK     0     110.018 161.138 120.863  0.00  0.00     0.030 A 
HETATM   17  C   UNK     0     109.216 160.773 119.599  0.00  0.00     0.056 A 
HETATM   18  C   UNK     0     107.794 161.329 119.402  0.00  0.00     0.096 A 
HETATM   19  F   UNK     0     106.993 160.965 118.138  0.00  0.00    -0.213 F 
HETATM   20  C   UNK     0     107.172 162.250 120.469  0.00  0.00     0.056 A 
HETATM   21  C   UNK     0     107.974 162.614 121.733  0.00  0.00     0.030 A 
ENDBRANCH   7  15
ENDBRANCH   1   7
BRANCH   2  22
HETATM   22  C   UNK     0     113.133 158.024 126.353  0.00  0.00     0.097 C 
BRANCH  22  23
HETATM   23  C   UNK     0     112.773 157.765 127.828  0.00  0.00     0.024 C 
BRANCH  23  24
HETATM   24  C   UNK     0     111.909 156.549 128.208  0.00  0.00     0.002 C 
BRANCH  24  25
HETATM   25  C   UNK     0     110.380 156.696 128.320  0.00  0.00     0.000 A 
HETATM   26  C   UNK     0     109.456 155.607 127.744  0.00  0.00     0.000 A 
HETATM   27  C   UNK     0     107.927 155.754 127.857  0.00  0.00     0.000 A 
HETATM   28  C   UNK     0     107.321 156.991 128.546  0.00  0.00     0.000 A 
HETATM   29  C   UNK     0     108.245 158.081 129.123  0.00  0.00     0.000 A 
HETATM   30  C   UNK     0     109.774 157.933 129.010  0.00  0.00     0.000 A 
ENDBRANCH  24  25
ENDBRANCH  23  24
ENDBRANCH  22  23
ENDBRANCH   2  22
TORSDOF 7
ENDMDL
MODEL 2
REMARK VINA RESULT:      -8.0     64.401     67.346
REMARK  7 active torsions:
REMARK  status: ('A' for Active; 'I' for Inactive)
REMARK    1  A    between atoms: N_3  and  C_7 
REMARK    2  A    between atoms: N_4  and  C_10 
REMARK    3  A    between atoms: C_7  and  C_11 
REMARK    4  A    between atoms: C_7  and  C_12 
REMARK    5  A    between atoms: C_10  and  C_13 
REMARK    6  A    between atoms: C_13  and  C_22 
REMARK    7  A    between atoms: C_22  and  C_25 
ROOT
HETATM    1  N   UNK     0     153.223 117.510 152.402  0.00  0.00    -0.345 N 
HETATM    2  N   UNK     0     152.237 115.360 154.375  0.00  0.00    -0.365 N 
HETATM    3  C   UNK     0     151.843 116.854 152.201  0.00  0.00     0.125 A 
HETATM    4  C   UNK     0     154.109 117.090 153.589  0.00  0.00     0.125 A 
HETATM    5  C   UNK     0     151.351 115.780 153.188  0.00  0.00     0.122 A 
HETATM    6  C   UNK     0     153.616 116.015 154.575  0.00  0.00     0.122 A 
ENDROOT
BRANCH   1   7
HETATM    7  C   UNK     0     153.715 118.584 151.415  0.00  0.00     0.040 C 
BRANCH   7   8
HETATM    8  C   UNK     0     154.058 118.198 149.964  0.00  0.00    -0.029 A 
HETATM    9  C   UNK     0     154.164 119.289 148.882  0.00  0.00     0.030 A 
HETATM   10  C   UNK     0     154.506 118.904 147.431  0.00  0.00     0.056 A 
HETATM   11  C   UNK     0     154.742 117.427 147.062  0.00  0.00     0.096 A 
HETATM   12  F   UNK     0     155.085 117.041 145.611  0.00  0.00    -0.213 F 
HETATM   13  C   UNK     0     154.636 116.336 148.144  0.00  0.00     0.056 A 
HETATM   14  C   UNK     0     154.294 116.722 149.595  0.00  0.00     0.030 A 
ENDBRANCH   7   8
BRANCH   7  15
HETATM   15  C   UNK     0     153.866 120.045 151.879  0.00  0.00    -0.029 A 
HETATM   16  C   UNK     0     155.268 120.635 152.120  0.00  0.00     0.030 A 
HETATM   17  C   UNK     0     155.419 122.096 152.585  0.00  0.00     0.056 A 
HETATM   18  C   UNK     0     154.168 122.966 152.807  0.00  0.00     0.096 A 
HETATM   19  F   UNK     0     154.319 124.427 153.271  0.00  0.00    -0.213 F 
HETATM   20  C   UNK     0     152.766 122.376 152.565  0.00  0.00     0.056 A 
HETATM   21  C   UNK     0     152.615 120.915 152.101  0.00  0.00     0.030 A 
ENDBRANCH   7  15
ENDBRANCH   1   7
BRANCH   2  22
HETATM   22  C   UNK     0     151.745 114.285 155.362  0.00  0.00     0.097 C 
BRANCH  22  23
HETATM   23  C   UNK     0     151.455 112.858 154.864  0.00  0.00     0.024 C 
BRANCH  23  24
HETATM   24  C   UNK     0     150.433 111.976 155.605  0.00  0.00     0.002 C 
BRANCH  24  25
HETATM   25  C   UNK     0     149.036 111.742 155.001  0.00  0.00     0.000 A 
HETATM   26  C   UNK     0     147.993 112.875 155.011  0.00  0.00     0.000 A 
HETATM   27  C   UNK     0     146.596 112.641 154.406  0.00  0.00     0.000 A 
HETATM   28  C   UNK     0     146.241 111.274 153.791  0.00  0.00     0.000 A 
HETATM   29  C   UNK     0     147.284 110.141 153.781  0.00  0.00     0.000 A 
HETATM   30  C   UNK     0     148.681 110.375 154.386  0.00  0.00     0.000 A 
ENDBRANCH  24  25
ENDBRANCH  23  24
ENDBRANCH  22  23
ENDBRANCH   2  22
TORSDOF 7
ENDMDL
MODEL 3
REMARK VINA RESULT:      -7.9      0.411      4.643
REMARK  7 active torsions:
REMARK  status: ('A' for Active; 'I' for Inactive)
REMARK    1  A    between atoms: N_3  and  C_7 
REMARK    2  A    between atoms: N_4  and  C_10 
REMARK    3  A    between atoms: C_7  and  C_11 
REMARK    4  A    between atoms: C_7  and  C_12 
REMARK    5  A    between atoms: C_10  and  C_13 
REMARK    6  A    between atoms: C_13  and  C_22 
REMARK    7  A    between atoms: C_22  and  C_25 
ROOT
HETATM    1  N   UNK     0     110.873 161.369 123.875  0.00  0.00    -0.345 N 
HETATM    2  N   UNK     0     112.257 159.176 125.536  0.00  0.00    -0.365 N 
HETATM    3  C   UNK     0     110.094 160.636 124.983  0.00  0.00     0.125 A 
HETATM    4  C   UNK     0     112.343 161.005 123.598  0.00  0.00     0.125 A 
HETATM    5  C   UNK     0     110.786 159.539 125.814  0.00  0.00     0.122 A 
HETATM    6  C   UNK     0     113.035 159.909 124.428  0.00  0.00     0.122 A 
ENDROOT
BRANCH   1   7
HETATM    7  C   UNK     0     110.181 162.466 123.044  0.00  0.00     0.040 C 
BRANCH   7   8
HETATM    8  C   UNK     0     109.356 162.085 121.801  0.00  0.00    -0.029 A 
HETATM    9  C   UNK     0     109.968 161.173 120.721  0.00  0.00     0.030 A 
HETATM   10  C   UNK     0     109.144 160.792 119.478  0.00  0.00     0.056 A 
HETATM   11  C   UNK     0     107.707 161.322 119.313  0.00  0.00     0.096 A 
HETATM   12  F   UNK     0     106.883 160.941 118.070  0.00  0.00    -0.213 F 
HETATM   13  C   UNK     0     107.096 162.234 120.393  0.00  0.00     0.056 A 
HETATM   14  C   UNK     0     107.920 162.616 121.637  0.00  0.00     0.030 A 
ENDBRANCH   7   8
BRANCH   7  15
HETATM   15  C   UNK     0     110.313 163.943 123.457  0.00  0.00    -0.029 A 
HETATM   16  C   UNK     0     109.756 164.417 124.813  0.00  0.00     0.030 A 
HETATM   17  C   UNK     0     109.889 165.895 125.226  0.00  0.00     0.056 A 
HETATM   18  C   UNK     0     110.578 166.899 124.283  0.00  0.00     0.096 A 
HETATM   19  F   UNK     0     110.710 168.377 124.697  0.00  0.00    -0.213 F 
HETATM   20  C   UNK     0     111.134 166.425 122.928  0.00  0.00     0.056 A 
HETATM   21  C   UNK     0     111.002 164.947 122.514  0.00  0.00     0.030 A 
ENDBRANCH   7  15
ENDBRANCH   1   7
BRANCH   2  22
HETATM   22  C   UNK     0     112.949 158.079 126.367  0.00  0.00     0.097 C 
BRANCH  22  23
HETATM   23  C   UNK     0     112.381 156.648 126.378  0.00  0.00     0.024 C 
BRANCH  23  24
HETATM   24  C   UNK     0     111.756 156.077 127.664  0.00  0.00     0.002 C 
BRANCH  24  25
HETATM   25  C   UNK     0     110.320 156.469 128.062  0.00  0.00     0.000 A 
HETATM   26  C   UNK     0     109.132 155.598 127.614  0.00  0.00     0.000 A 
HETATM   27  C   UNK     0     107.696 155.990 128.011  0.00  0.00     0.000 A 
HETATM   28  C   UNK     0     107.449 157.253 128.857  0.00  0.00     0.000 A 
HETATM   29  C   UNK     0     108.637 158.125 129.305  0.00  0.00     0.000 A 
HETATM   30  C   UNK     0     110.073 157.733 128.908  0.00  0.00     0.000 A 
ENDBRANCH  24  25
ENDBRANCH  23  24
ENDBRANCH  22  23
ENDBRANCH   2  22
TORSDOF 7
ENDMDL
MODEL 4
REMARK VINA RESULT:      -7.9     34.867     40.031
REMARK  7 active torsions:
REMARK  status: ('A' for Active; 'I' for Inactive)
REMARK    1  A    between atoms: N_3  and  C_7 
REMARK    2  A    between atoms: N_4  and  C_10 
REMARK    3  A    between atoms: C_7  and  C_11 
REMARK    4  A    between atoms: C_7  and  C_12 
REMARK    5  A    between atoms: C_10  and  C_13 
REMARK    6  A    between atoms: C_13  and  C_22 
REMARK    7  A    between atoms: C_22  and  C_25 
ROOT
HETATM    1  N   UNK     0     101.829 156.124  85.128  0.00  0.00    -0.345 N 
HETATM    2  N   UNK     0     101.342 156.862  88.078  0.00  0.00    -0.365 N 
HETATM    3  C   UNK     0     101.388 157.552  85.502  0.00  0.00     0.125 A 
HETATM    4  C   UNK     0     102.026 155.067  86.229  0.00  0.00     0.125 A 
HETATM    5  C   UNK     0     101.144 157.921  86.977  0.00  0.00     0.122 A 
HETATM    6  C   UNK     0     101.783 155.435  87.704  0.00  0.00     0.122 A 
ENDROOT
BRANCH   1   7
HETATM    7  C   UNK     0     102.072 155.756  83.653  0.00  0.00     0.040 C 
BRANCH   7   8
HETATM    8  C   UNK     0     101.216 154.667  82.980  0.00  0.00    -0.029 A 
HETATM    9  C   UNK     0      99.740 154.488  83.384  0.00  0.00     0.030 A 
HETATM   10  C   UNK     0      98.884 153.400  82.712  0.00  0.00     0.056 A 
HETATM   11  C   UNK     0      99.503 152.489  81.634  0.00  0.00     0.096 A 
HETATM   12  F   UNK     0      98.646 151.400  80.961  0.00  0.00    -0.213 F 
HETATM   13  C   UNK     0     100.978 152.668  81.230  0.00  0.00     0.056 A 
HETATM   14  C   UNK     0     101.834 153.757  81.903  0.00  0.00     0.030 A 
ENDBRANCH   7   8
BRANCH   7  15
HETATM   15  C   UNK     0     103.171 156.475  82.850  0.00  0.00    -0.029 A 
HETATM   16  C   UNK     0     102.801 157.295  81.600  0.00  0.00     0.030 A 
HETATM   17  C   UNK     0     103.900 158.016  80.797  0.00  0.00     0.056 A 
HETATM   18  C   UNK     0     105.370 157.916  81.245  0.00  0.00     0.096 A 
HETATM   19  F   UNK     0     106.470 158.636  80.442  0.00  0.00    -0.213 F 
HETATM   20  C   UNK     0     105.741 157.096  82.495  0.00  0.00     0.056 A 
HETATM   21  C   UNK     0     104.642 156.376  83.298  0.00  0.00     0.030 A 
ENDBRANCH   7  15
ENDBRANCH   1   7
BRANCH   2  22
HETATM   22  C   UNK     0     101.098 157.230  89.554  0.00  0.00     0.097 C 
BRANCH  22  23
HETATM   23  C   UNK     0     102.138 156.852  90.624  0.00  0.00     0.024 C 
BRANCH  23  24
HETATM   24  C   UNK     0     101.993 155.535  91.408  0.00  0.00     0.002 C 
BRANCH  24  25
HETATM   25  C   UNK     0     103.039 155.153  92.472  0.00  0.00     0.000 A 
HETATM   26  C   UNK     0     103.749 153.789  92.399  0.00  0.00     0.000 A 
HETATM   27  C   UNK     0     104.794 153.407  93.464  0.00  0.00     0.000 A 
HETATM   28  C   UNK     0     105.130 154.389  94.602  0.00  0.00     0.000 A 
HETATM   29  C   UNK     0     104.419 155.754  94.675  0.00  0.00     0.000 A 
HETATM   30  C   UNK     0     103.374 156.136  93.610  0.00  0.00     0.000 A 
ENDBRANCH  24  25
ENDBRANCH  23  24
ENDBRANCH  22  23
ENDBRANCH   2  22
TORSDOF 7
ENDMDL
MODEL 5
REMARK VINA RESULT:      -7.6     42.414     45.147
REMARK  7 active torsions:
REMARK  status: ('A' for Active; 'I' for Inactive)
REMARK    1  A    between atoms: N_3  and  C_7 
REMARK    2  A    between atoms: N_4  and  C_10 
REMARK    3  A    between atoms: C_7  and  C_11 
REMARK    4  A    between atoms: C_7  and  C_12 
REMARK    5  A    between atoms: C_10  and  C_13 
REMARK    6  A    between atoms: C_13  and  C_22 
REMARK    7  A    between atoms: C_22  and  C_25 
ROOT
HETATM    1  N   UNK     0     129.734 136.820 155.096  0.00  0.00    -0.345 N 
HETATM    2  N   UNK     0     127.036 136.774 156.581  0.00  0.00    -0.365 N 
HETATM    3  C   UNK     0     129.566 135.958 156.361  0.00  0.00     0.125 A 
HETATM    4  C   UNK     0     128.553 137.659 154.574  0.00  0.00     0.125 A 
HETATM    5  C   UNK     0     128.217 135.934 157.104  0.00  0.00     0.122 A 
HETATM    6  C   UNK     0     127.204 137.635 155.317  0.00  0.00     0.122 A 
ENDROOT
BRANCH   1   7
HETATM    7  C   UNK     0     131.083 136.844 154.353  0.00  0.00     0.040 C 
BRANCH   7   8
HETATM    8  C   UNK     0     131.593 135.576 153.643  0.00  0.00    -0.029 A 
HETATM    9  C   UNK     0     133.100 135.259 153.620  0.00  0.00     0.030 A 
HETATM   10  C   UNK     0     133.610 133.992 152.910  0.00  0.00     0.056 A 
HETATM   11  C   UNK     0     132.612 133.041 152.222  0.00  0.00     0.096 A 
HETATM   12  F   UNK     0     133.122 131.773 151.512  0.00  0.00    -0.213 F 
HETATM   13  C   UNK     0     131.106 133.357 152.245  0.00  0.00     0.056 A 
HETATM   14  C   UNK     0     130.596 134.625 152.956  0.00  0.00     0.030 A 
ENDBRANCH   7   8
BRANCH   7  15
HETATM   15  C   UNK     0     131.922 138.134 154.321  0.00  0.00    -0.029 A 
HETATM   16  C   UNK     0     132.265 138.796 152.973  0.00  0.00     0.030 A 
HETATM   17  C   UNK     0     133.104 140.087 152.940  0.00  0.00     0.056 A 
HETATM   18  C   UNK     0     133.600 140.716 154.255  0.00  0.00     0.096 A 
HETATM   19  F   UNK     0     134.440 142.007 154.222  0.00  0.00    -0.213 F 
HETATM   20  C   UNK     0     133.257 140.054 155.603  0.00  0.00     0.056 A 
HETATM   21  C   UNK     0     132.418 138.763 155.636  0.00  0.00     0.030 A 
ENDBRANCH   7  15
ENDBRANCH   1   7
BRANCH   2  22
HETATM   22  C   UNK     0     125.687 136.750 157.324  0.00  0.00     0.097 C 
BRANCH  22  23
HETATM   23  C   UNK     0     125.634 136.359 158.812  0.00  0.00     0.024 C 
BRANCH  23  24
HETATM   24  C   UNK     0     126.402 137.192 159.855  0.00  0.00     0.002 C 
BRANCH  24  25
HETATM   25  C   UNK     0     126.855 136.542 161.177  0.00  0.00     0.000 A 
HETATM   26  C   UNK     0     125.814 135.919 162.124  0.00  0.00     0.000 A 
HETATM   27  C   UNK     0     126.267 135.270 163.446  0.00  0.00     0.000 A 
HETATM   28  C   UNK     0     127.761 135.244 163.819  0.00  0.00     0.000 A 
HETATM   29  C   UNK     0     128.802 135.868 162.872  0.00  0.00     0.000 A 
HETATM   30  C   UNK     0     128.349 136.517 161.550  0.00  0.00     0.000 A 
ENDBRANCH  24  25
ENDBRANCH  23  24
ENDBRANCH  22  23
ENDBRANCH   2  22
TORSDOF 7
ENDMDL
MODEL 6
REMARK VINA RESULT:      -7.4     38.258     43.471
REMARK  7 active torsions:
REMARK  status: ('A' for Active; 'I' for Inactive)
REMARK    1  A    between atoms: N_3  and  C_7 
REMARK    2  A    between atoms: N_4  and  C_10 
REMARK    3  A    between atoms: C_7  and  C_11 
REMARK    4  A    between atoms: C_7  and  C_12 
REMARK    5  A    between atoms: C_10  and  C_13 
REMARK    6  A    between atoms: C_13  and  C_22 
REMARK    7  A    between atoms: C_22  and  C_25 
ROOT
HETATM    1  N   UNK     0     103.425 156.364  83.271  0.00  0.00    -0.345 N 
HETATM    2  N   UNK     0     105.946 157.484  81.901  0.00  0.00    -0.365 N 
HETATM    3  C   UNK     0     104.821 155.962  83.781  0.00  0.00     0.125 A 
HETATM    4  C   UNK     0     103.289 157.326  82.076  0.00  0.00     0.125 A 
HETATM    5  C   UNK     0     106.082 156.522  83.096  0.00  0.00     0.122 A 
HETATM    6  C   UNK     0     104.550 157.886  81.391  0.00  0.00     0.122 A 
ENDROOT
BRANCH   1   7
HETATM    7  C   UNK     0     102.164 155.805  83.956  0.00  0.00     0.040 C 
BRANCH   7   8
HETATM    8  C   UNK     0     101.751 156.320  85.348  0.00  0.00    -0.029 A 
HETATM    9  C   UNK     0     101.251 157.767  85.516  0.00  0.00     0.030 A 
HETATM   10  C   UNK     0     100.839 158.282  86.907  0.00  0.00     0.056 A 
HETATM   11  C   UNK     0     100.925 157.350  88.130  0.00  0.00     0.096 A 
HETATM   12  F   UNK     0     100.512 157.865  89.522  0.00  0.00    -0.213 F 
HETATM   13  C   UNK     0     101.425 155.903  87.962  0.00  0.00     0.056 A 
HETATM   14  C   UNK     0     101.838 155.388  86.570  0.00  0.00     0.030 A 
ENDBRANCH   7   8
BRANCH   7  15
HETATM   15  C   UNK     0     101.317 154.730  83.251  0.00  0.00    -0.029 A 
HETATM   16  C   UNK     0     101.943 153.859  82.145  0.00  0.00     0.030 A 
HETATM   17  C   UNK     0     101.096 152.784  81.439  0.00  0.00     0.056 A 
HETATM   18  C   UNK     0      99.623 152.580  81.838  0.00  0.00     0.096 A 
HETATM   19  F   UNK     0      98.775 151.505  81.132  0.00  0.00    -0.213 F 
HETATM   20  C   UNK     0      98.997 153.451  82.943  0.00  0.00     0.056 A 
HETATM   21  C   UNK     0      99.844 154.526  83.650  0.00  0.00     0.030 A 
ENDBRANCH   7  15
ENDBRANCH   1   7
BRANCH   2  22
HETATM   22  C   UNK     0     107.206 158.044  81.215  0.00  0.00     0.097 C 
BRANCH  22  23
HETATM   23  C   UNK     0     107.158 158.455  79.732  0.00  0.00     0.024 C 
BRANCH  23  24
HETATM   24  C   UNK     0     107.246 159.942  79.342  0.00  0.00     0.002 C 
BRANCH  24  25
HETATM   25  C   UNK     0     108.553 160.508  78.755  0.00  0.00     0.000 A 
HETATM   26  C   UNK     0     108.661 160.788  77.245  0.00  0.00     0.000 A 
HETATM   27  C   UNK     0     109.967 161.354  76.658  0.00  0.00     0.000 A 
HETATM   28  C   UNK     0     111.166 161.641  77.582  0.00  0.00     0.000 A 
HETATM   29  C   UNK     0     111.058 161.361  79.092  0.00  0.00     0.000 A 
HETATM   30  C   UNK     0     109.751 160.795  79.679  0.00  0.00     0.000 A 
ENDBRANCH  24  25
ENDBRANCH  23  24
ENDBRANCH  22  23
ENDBRANCH   2  22
TORSDOF 7
ENDMDL
MODEL 7
REMARK VINA RESULT:      -7.4     16.544     21.697
REMARK  7 active torsions:
REMARK  status: ('A' for Active; 'I' for Inactive)
REMARK    1  A    between atoms: N_3  and  C_7 
REMARK    2  A    between atoms: N_4  and  C_10 
REMARK    3  A    between atoms: C_7  and  C_11 
REMARK    4  A    between atoms: C_7  and  C_12 
REMARK    5  A    between atoms: C_10  and  C_13 
REMARK    6  A    between atoms: C_13  and  C_22 
REMARK    7  A    between atoms: C_22  and  C_25 
ROOT
HETATM    1  N   UNK     0     110.885 173.164 109.910  0.00  0.00    -0.345 N 
HETATM    2  N   UNK     0     108.084 173.941 108.891  0.00  0.00    -0.365 N 
HETATM    3  C   UNK     0     110.737 174.190 108.771  0.00  0.00     0.125 A 
HETATM    4  C   UNK     0     109.633 172.527 110.539  0.00  0.00     0.125 A 
HETATM    5  C   UNK     0     109.337 174.578 108.261  0.00  0.00     0.122 A 
HETATM    6  C   UNK     0     108.232 172.915 110.029  0.00  0.00     0.122 A 
ENDROOT
BRANCH   1   7
HETATM    7  C   UNK     0     112.285 172.776 110.420  0.00  0.00     0.040 C 
BRANCH   7   8
HETATM    8  C   UNK     0     113.445 172.595 109.423  0.00  0.00    -0.029 A 
HETATM    9  C   UNK     0     113.593 171.273 108.646  0.00  0.00     0.030 A 
HETATM   10  C   UNK     0     114.752 171.092 107.650  0.00  0.00     0.056 A 
HETATM   11  C   UNK     0     115.763 172.232 107.429  0.00  0.00     0.096 A 
HETATM   12  F   UNK     0     116.923 172.051 106.431  0.00  0.00    -0.213 F 
HETATM   13  C   UNK     0     115.615 173.554 108.205  0.00  0.00     0.056 A 
HETATM   14  C   UNK     0     114.456 173.735 109.202  0.00  0.00     0.030 A 
ENDBRANCH   7   8
BRANCH   7  15
HETATM   15  C   UNK     0     112.526 172.569 111.927  0.00  0.00    -0.029 A 
HETATM   16  C   UNK     0     112.244 173.715 112.916  0.00  0.00     0.030 A 
HETATM   17  C   UNK     0     112.485 173.508 114.423  0.00  0.00     0.056 A 
HETATM   18  C   UNK     0     113.008 172.156 114.941  0.00  0.00     0.096 A 
HETATM   19  F   UNK     0     113.249 171.949 116.448  0.00  0.00    -0.213 F 
HETATM   20  C   UNK     0     113.290 171.009 113.951  0.00  0.00     0.056 A 
HETATM   21  C   UNK     0     113.049 171.216 112.444  0.00  0.00     0.030 A 
ENDBRANCH   7  15
ENDBRANCH   1   7
BRANCH   2  22
HETATM   22  C   UNK     0     106.684 174.329 108.381  0.00  0.00     0.097 C 
BRANCH  22  23
HETATM   23  C   UNK     0     106.349 174.208 106.883  0.00  0.00     0.024 C 
BRANCH  23  24
HETATM   24  C   UNK     0     105.229 175.071 106.272  0.00  0.00     0.002 C 
BRANCH  24  25
HETATM   25  C   UNK     0     104.157 174.420 105.378  0.00  0.00     0.000 A 
HETATM   26  C   UNK     0     102.725 174.987 105.356  0.00  0.00     0.000 A 
HETATM   27  C   UNK     0     101.653 174.336 104.461  0.00  0.00     0.000 A 
HETATM   28  C   UNK     0     102.013 173.119 103.589  0.00  0.00     0.000 A 
HETATM   29  C   UNK     0     103.445 172.552 103.611  0.00  0.00     0.000 A 
HETATM   30  C   UNK     0     104.517 173.203 104.506  0.00  0.00     0.000 A 
ENDBRANCH  24  25
ENDBRANCH  23  24
ENDBRANCH  22  23
ENDBRANCH   2  22
TORSDOF 7
ENDMDL
MODEL 8
REMARK VINA RESULT:      -7.3     65.242     68.420
REMARK  7 active torsions:
REMARK  status: ('A' for Active; 'I' for Inactive)
REMARK    1  A    between atoms: N_3  and  C_7 
REMARK    2  A    between atoms: N_4  and  C_10 
REMARK    3  A    between atoms: C_7  and  C_11 
REMARK    4  A    between atoms: C_7  and  C_12 
REMARK    5  A    between atoms: C_10  and  C_13 
REMARK    6  A    between atoms: C_13  and  C_22 
REMARK    7  A    between atoms: C_22  and  C_25 
ROOT
HETATM    1  N   UNK     0     159.302 119.677 101.133  0.00  0.00    -0.345 N 
HETATM    2  N   UNK     0     161.635 121.409 102.155  0.00  0.00    -0.365 N 
HETATM    3  C   UNK     0     159.732 120.930 100.347  0.00  0.00     0.125 A 
HETATM    4  C   UNK     0     160.038 119.290 102.428  0.00  0.00     0.125 A 
HETATM    5  C   UNK     0     160.899 121.796 100.858  0.00  0.00     0.122 A 
HETATM    6  C   UNK     0     161.204 120.156 102.939  0.00  0.00     0.122 A 
ENDROOT
BRANCH   1   7
HETATM    7  C   UNK     0     158.135 118.811 100.622  0.00  0.00     0.040 C 
BRANCH   7   8
HETATM    8  C   UNK     0     156.814 118.756 101.412  0.00  0.00    -0.029 A 
HETATM    9  C   UNK     0     156.150 120.059 101.894  0.00  0.00     0.030 A 
HETATM   10  C   UNK     0     154.829 120.004 102.684  0.00  0.00     0.056 A 
HETATM   11  C   UNK     0     154.172 118.645 102.992  0.00  0.00     0.096 A 
HETATM   12  F   UNK     0     152.851 118.590 103.782  0.00  0.00    -0.213 F 
HETATM   13  C   UNK     0     154.837 117.342 102.510  0.00  0.00     0.056 A 
HETATM   14  C   UNK     0     156.158 117.398 101.720  0.00  0.00     0.030 A 
ENDBRANCH   7   8
BRANCH   7  15
HETATM   15  C   UNK     0     158.289 118.002  99.322  0.00  0.00    -0.029 A 
HETATM   16  C   UNK     0     159.657 117.404  98.945  0.00  0.00     0.030 A 
HETATM   17  C   UNK     0     159.812 116.594  97.644  0.00  0.00     0.056 A 
HETATM   18  C   UNK     0     158.598 116.381  96.720  0.00  0.00     0.096 A 
HETATM   19  F   UNK     0     158.752 115.570  95.420  0.00  0.00    -0.213 F 
HETATM   20  C   UNK     0     157.229 116.979  97.098  0.00  0.00     0.056 A 
HETATM   21  C   UNK     0     157.075 117.789  98.399  0.00  0.00     0.030 A 
ENDBRANCH   7  15
ENDBRANCH   1   7
BRANCH   2  22
HETATM   22  C   UNK     0     162.801 122.275 102.666  0.00  0.00     0.097 C 
BRANCH  22  23
HETATM   23  C   UNK     0     162.825 122.749 104.130  0.00  0.00     0.024 C 
BRANCH  23  24
HETATM   24  C   UNK     0     164.164 123.096 104.806  0.00  0.00     0.002 C 
BRANCH  24  25
HETATM   25  C   UNK     0     164.502 124.561 105.139  0.00  0.00     0.000 A 
HETATM   26  C   UNK     0     164.025 125.692 104.209  0.00  0.00     0.000 A 
HETATM   27  C   UNK     0     164.363 127.157 104.541  0.00  0.00     0.000 A 
HETATM   28  C   UNK     0     165.178 127.492 105.805  0.00  0.00     0.000 A 
HETATM   29  C   UNK     0     165.655 126.361 106.735  0.00  0.00     0.000 A 
HETATM   30  C   UNK     0     165.317 124.896 106.402  0.00  0.00     0.000 A 
ENDBRANCH  24  25
ENDBRANCH  23  24
ENDBRANCH  22  23
ENDBRANCH   2  22
TORSDOF 7
ENDMDL
MODEL 9
REMARK VINA RESULT:      -7.2     65.182     68.451
REMARK  7 active torsions:
REMARK  status: ('A' for Active; 'I' for Inactive)
REMARK    1  A    between atoms: N_3  and  C_7 
REMARK    2  A    between atoms: N_4  and  C_10 
REMARK    3  A    between atoms: C_7  and  C_11 
REMARK    4  A    between atoms: C_7  and  C_12 
REMARK    5  A    between atoms: C_10  and  C_13 
REMARK    6  A    between atoms: C_13  and  C_22 
REMARK    7  A    between atoms: C_22  and  C_25 
ROOT
HETATM    1  N   UNK     0     159.294 119.446 101.400  0.00  0.00    -0.345 N 
HETATM    2  N   UNK     0     161.693 120.957 102.605  0.00  0.00    -0.365 N 
HETATM    3  C   UNK     0     159.886 120.663 100.664  0.00  0.00     0.125 A 
HETATM    4  C   UNK     0     159.901 118.986 102.738  0.00  0.00     0.125 A 
HETATM    5  C   UNK     0     161.085 121.418 101.266  0.00  0.00     0.122 A 
HETATM    6  C   UNK     0     161.100 119.741 103.340  0.00  0.00     0.122 A 
ENDROOT
BRANCH   1   7
HETATM    7  C   UNK     0     158.095 118.691 100.798  0.00  0.00     0.040 C 
BRANCH   7   8
HETATM    8  C   UNK     0     158.243 117.961  99.450  0.00  0.00    -0.029 A 
HETATM    9  C   UNK     0     159.604 117.369  99.040  0.00  0.00     0.030 A 
HETATM   10  C   UNK     0     159.752 116.639  97.693  0.00  0.00     0.056 A 
HETATM   11  C   UNK     0     158.539 116.501  96.754  0.00  0.00     0.096 A 
HETATM   12  F   UNK     0     158.687 115.772  95.406  0.00  0.00    -0.213 F 
HETATM   13  C   UNK     0     157.178 117.094  97.164  0.00  0.00     0.056 A 
HETATM   14  C   UNK     0     157.030 117.823  98.512  0.00  0.00     0.030 A 
ENDBRANCH   7   8
BRANCH   7  15
HETATM   15  C   UNK     0     156.748 118.665 101.543  0.00  0.00    -0.029 A 
HETATM   16  C   UNK     0     156.052 117.321 101.830  0.00  0.00     0.030 A 
HETATM   17  C   UNK     0     154.705 117.295 102.576  0.00  0.00     0.056 A 
HETATM   18  C   UNK     0     154.053 118.612 103.035  0.00  0.00     0.096 A 
HETATM   19  F   UNK     0     152.706 118.586 103.780  0.00  0.00    -0.213 F 
HETATM   20  C   UNK     0     154.749 119.956 102.748  0.00  0.00     0.056 A 
HETATM   21  C   UNK     0     156.096 119.983 102.002  0.00  0.00     0.030 A 
ENDBRANCH   7  15
ENDBRANCH   1   7
BRANCH   2  22
HETATM   22  C   UNK     0     162.892 121.712 103.207  0.00  0.00     0.097 C 
BRANCH  22  23
HETATM   23  C   UNK     0     162.661 122.993 104.030  0.00  0.00     0.024 C 
BRANCH  23  24
HETATM   24  C   UNK     0     163.233 124.336 103.540  0.00  0.00     0.002 C 
BRANCH  24  25
HETATM   25  C   UNK     0     164.049 125.222 104.501  0.00  0.00     0.000 A 
HETATM   26  C   UNK     0     164.068 126.750 104.311  0.00  0.00     0.000 A 
HETATM   27  C   UNK     0     164.884 127.635 105.272  0.00  0.00     0.000 A 
HETATM   28  C   UNK     0     165.680 126.992 106.423  0.00  0.00     0.000 A 
HETATM   29  C   UNK     0     165.661 125.464 106.613  0.00  0.00     0.000 A 
HETATM   30  C   UNK     0     164.845 124.579 105.652  0.00  0.00     0.000 A 
ENDBRANCH  24  25
ENDBRANCH  23  24
ENDBRANCH  22  23
ENDBRANCH   2  22
TORSDOF 7
ENDMDL
MODEL 10
REMARK VINA RESULT:      -7.1     65.729     68.985
REMARK  7 active torsions:
REMARK  status: ('A' for Active; 'I' for Inactive)
REMARK    1  A    between atoms: N_3  and  C_7 
REMARK    2  A    between atoms: N_4  and  C_10 
REMARK    3  A    between atoms: C_7  and  C_11 
REMARK    4  A    between atoms: C_7  and  C_12 
REMARK    5  A    between atoms: C_10  and  C_13 
REMARK    6  A    between atoms: C_13  and  C_22 
REMARK    7  A    between atoms: C_22  and  C_25 
ROOT
HETATM    1  N   UNK     0     159.246 117.854 101.644  0.00  0.00    -0.345 N 
HETATM    2  N   UNK     0     162.056 118.167 102.865  0.00  0.00    -0.365 N 
HETATM    3  C   UNK     0     159.822 116.745 102.545  0.00  0.00     0.125 A 
HETATM    4  C   UNK     0     160.075 119.118 101.354  0.00  0.00     0.125 A 
HETATM    5  C   UNK     0     161.227 116.902 103.156  0.00  0.00     0.122 A 
HETATM    6  C   UNK     0     161.480 119.275 101.965  0.00  0.00     0.122 A 
ENDROOT
BRANCH   1   7
HETATM    7  C   UNK     0     157.841 117.697 101.033  0.00  0.00     0.040 C 
BRANCH   7   8
HETATM    8  C   UNK     0     157.668 117.003  99.669  0.00  0.00    -0.029 A 
HETATM    9  C   UNK     0     157.565 115.468  99.594  0.00  0.00     0.030 A 
HETATM   10  C   UNK     0     157.391 114.773  98.232  0.00  0.00     0.056 A 
HETATM   11  C   UNK     0     157.321 115.614  96.943  0.00  0.00     0.096 A 
HETATM   12  F   UNK     0     157.147 114.919  95.579  0.00  0.00    -0.213 F 
HETATM   13  C   UNK     0     157.424 117.148  97.017  0.00  0.00     0.056 A 
HETATM   14  C   UNK     0     157.597 117.843  98.381  0.00  0.00     0.030 A 
ENDBRANCH   7   8
BRANCH   7  15
HETATM   15  C   UNK     0     156.611 118.235 101.785  0.00  0.00    -0.029 A 
HETATM   16  C   UNK     0     155.454 117.284 102.148  0.00  0.00     0.030 A 
HETATM   17  C   UNK     0     154.222 117.821 102.900  0.00  0.00     0.056 A 
HETATM   18  C   UNK     0     154.147 119.309 103.290  0.00  0.00     0.096 A 
HETATM   19  F   UNK     0     152.915 119.846 104.043  0.00  0.00    -0.213 F 
HETATM   20  C   UNK     0     155.303 120.260 102.928  0.00  0.00     0.056 A 
HETATM   21  C   UNK     0     156.535 119.722 102.176  0.00  0.00     0.030 A 
ENDBRANCH   7  15
ENDBRANCH   1   7
BRANCH   2  22
HETATM   22  C   UNK     0     163.461 118.324 103.476  0.00  0.00     0.097 C 
BRANCH  22  23
HETATM   23  C   UNK     0     164.145 119.703 103.491  0.00  0.00     0.024 C 
BRANCH  23  24
HETATM   24  C   UNK     0     164.017 120.613 104.727  0.00  0.00     0.002 C 
BRANCH  24  25
HETATM   25  C   UNK     0     163.790 122.126 104.549  0.00  0.00     0.000 A 
HETATM   26  C   UNK     0     164.807 123.130 105.123  0.00  0.00     0.000 A 
HETATM   27  C   UNK     0     164.580 124.643 104.945  0.00  0.00     0.000 A 
HETATM   28  C   UNK     0     163.336 125.152 104.194  0.00  0.00     0.000 A 
HETATM   29  C   UNK     0     162.318 124.149 103.620  0.00  0.00     0.000 A 
HETATM   30  C   UNK     0     162.545 122.635 103.798  0.00  0.00     0.000 A 
ENDBRANCH  24  25
ENDBRANCH  23  24
ENDBRANCH  22  23
ENDBRANCH   2  22
TORSDOF 7
ENDMDL
