MODEL 1
REMARK VINA RESULT:      -5.3      0.000      0.000
REMARK  3 active torsions:
REMARK  status: ('A' for Active; 'I' for Inactive)
REMARK    1  A    between atoms: N_1  and  C_2 
REMARK    2  A    between atoms: C_2  and  C_5 
REMARK    3  A    between atoms: C_2  and  C_6 
ROOT
HETATM    1  N   UNK     0     146.627 146.581 114.383  0.00  0.00    -0.311 N 
HETATM    2  C   UNK     0     147.905 145.723 114.381  0.00  0.00     0.171 A 
HETATM    3  C   UNK     0     147.026 148.029 114.726  0.00  0.00     0.108 A 
HETATM    4  C   UNK     0     149.094 146.640 114.722  0.00  0.00     0.075 A 
HETATM    5  O   UNK     0     147.980 144.213 114.089  0.00  0.00    -0.176 OA
HETATM    6  C   UNK     0     148.551 148.065 114.935  0.00  0.00     0.033 A 
ENDROOT
BRANCH   1   7
HETATM    7  C   UNK     0     145.199 146.080 114.094  0.00  0.00     0.077 C 
BRANCH   7   8
HETATM    8  C   UNK     0     144.427 145.293 115.168  0.00  0.00     0.212 C 
HETATM    9  N   UNK     0     144.970 143.943 115.672  0.00  0.00    -0.070 NA
HETATM   10  O   UNK     0     143.112 145.855 115.738  0.00  0.00    -0.174 OA
ENDBRANCH   7   8
BRANCH   7  11
HETATM   11  C   UNK     0     144.545 146.367 112.729  0.00  0.00     0.047 C 
HETATM   12  C   UNK     0     145.405 146.860 111.550  0.00  0.00     0.007 C 
ENDBRANCH   7  11
ENDBRANCH   1   7
TORSDOF 3
ENDMDL
MODEL 2
REMARK VINA RESULT:      -5.1     22.710     23.722
REMARK  3 active torsions:
REMARK  status: ('A' for Active; 'I' for Inactive)
REMARK    1  A    between atoms: N_1  and  C_2 
REMARK    2  A    between atoms: C_2  and  C_5 
REMARK    3  A    between atoms: C_2  and  C_6 
ROOT
HETATM    1  N   UNK     0     157.752 154.678  96.121  0.00  0.00    -0.311 N 
HETATM    2  C   UNK     0     158.055 155.728  95.037  0.00  0.00     0.171 A 
HETATM    3  C   UNK     0     156.477 155.116  96.865  0.00  0.00     0.108 A 
HETATM    4  C   UNK     0     156.967 156.816  95.110  0.00  0.00     0.075 A 
HETATM    5  O   UNK     0     159.238 155.696  94.051  0.00  0.00    -0.176 OA
HETATM    6  C   UNK     0     155.992 156.438  96.239  0.00  0.00     0.033 A 
ENDROOT
BRANCH   1   7
HETATM    7  C   UNK     0     158.578 153.411  96.411  0.00  0.00     0.077 C 
BRANCH   7   8
HETATM    8  C   UNK     0     159.918 153.521  97.161  0.00  0.00     0.212 C 
HETATM    9  N   UNK     0     160.264 152.513  98.272  0.00  0.00    -0.070 NA
HETATM   10  O   UNK     0     160.914 154.640  96.800  0.00  0.00    -0.174 OA
ENDBRANCH   7   8
BRANCH   7  11
HETATM   11  C   UNK     0     158.064 152.034  95.951  0.00  0.00     0.047 C 
HETATM   12  C   UNK     0     157.898 151.737  94.449  0.00  0.00     0.007 C 
ENDBRANCH   7  11
ENDBRANCH   1   7
TORSDOF 3
ENDMDL
MODEL 3
REMARK VINA RESULT:      -5.0      1.894      2.517
REMARK  3 active torsions:
REMARK  status: ('A' for Active; 'I' for Inactive)
REMARK    1  A    between atoms: N_1  and  C_2 
REMARK    2  A    between atoms: C_2  and  C_5 
REMARK    3  A    between atoms: C_2  and  C_6 
ROOT
HETATM    1  N   UNK     0     145.942 146.422 113.922  0.00  0.00    -0.311 N 
HETATM    2  C   UNK     0     147.435 146.144 114.172  0.00  0.00     0.171 A 
HETATM    3  C   UNK     0     145.747 146.651 112.412  0.00  0.00     0.108 A 
HETATM    4  C   UNK     0     148.164 146.201 112.816  0.00  0.00     0.075 A 
HETATM    5  O   UNK     0     148.086 145.858 115.539  0.00  0.00    -0.176 OA
HETATM    6  C   UNK     0     147.121 146.514 111.729  0.00  0.00     0.033 A 
ENDROOT
BRANCH   1   7
HETATM    7  C   UNK     0     144.837 146.464 114.994  0.00  0.00     0.077 C 
BRANCH   7   8
HETATM    8  C   UNK     0     144.541 145.215 115.844  0.00  0.00     0.212 C 
HETATM    9  N   UNK     0     143.611 145.319 117.068  0.00  0.00    -0.070 NA
HETATM   10  O   UNK     0     145.174 143.861 115.471  0.00  0.00    -0.174 OA
ENDBRANCH   7   8
BRANCH   7  11
HETATM   11  C   UNK     0     144.027 147.755 115.215  0.00  0.00     0.047 C 
HETATM   12  C   UNK     0     142.644 147.920 114.558  0.00  0.00     0.007 C 
ENDBRANCH   7  11
ENDBRANCH   1   7
TORSDOF 3
ENDMDL
MODEL 4
REMARK VINA RESULT:      -4.9      2.203      2.965
REMARK  3 active torsions:
REMARK  status: ('A' for Active; 'I' for Inactive)
REMARK    1  A    between atoms: N_1  and  C_2 
REMARK    2  A    between atoms: C_2  and  C_5 
REMARK    3  A    between atoms: C_2  and  C_6 
ROOT
HETATM    1  N   UNK     0     145.837 146.250 114.140  0.00  0.00    -0.311 N 
HETATM    2  C   UNK     0     145.735 146.637 112.654  0.00  0.00     0.171 A 
HETATM    3  C   UNK     0     147.278 145.779 114.411  0.00  0.00     0.108 A 
HETATM    4  C   UNK     0     147.112 146.406 112.006  0.00  0.00     0.075 A 
HETATM    5  O   UNK     0     144.475 147.164 111.941  0.00  0.00    -0.176 OA
HETATM    6  C   UNK     0     148.066 145.876 113.091  0.00  0.00     0.033 A 
ENDROOT
BRANCH   1   7
HETATM    7  C   UNK     0     144.699 146.321 115.175  0.00  0.00     0.077 C 
BRANCH   7   8
HETATM    8  C   UNK     0     144.263 145.051 115.929  0.00  0.00     0.212 C 
HETATM    9  N   UNK     0     143.122 145.121 116.960  0.00  0.00    -0.070 NA
HETATM   10  O   UNK     0     144.969 143.710 115.651  0.00  0.00    -0.174 OA
ENDBRANCH   7   8
BRANCH   7  11
HETATM   11  C   UNK     0     143.996 147.662 115.457  0.00  0.00     0.047 C 
HETATM   12  C   UNK     0     142.634 147.969 114.807  0.00  0.00     0.007 C 
ENDBRANCH   7  11
ENDBRANCH   1   7
TORSDOF 3
ENDMDL
MODEL 5
REMARK VINA RESULT:      -4.9      2.493      5.073
REMARK  3 active torsions:
REMARK  status: ('A' for Active; 'I' for Inactive)
REMARK    1  A    between atoms: N_1  and  C_2 
REMARK    2  A    between atoms: C_2  and  C_5 
REMARK    3  A    between atoms: C_2  and  C_6 
ROOT
HETATM    1  N   UNK     0     148.034 147.143 114.441  0.00  0.00    -0.311 N 
HETATM    2  C   UNK     0     147.341 145.769 114.426  0.00  0.00     0.171 A 
HETATM    3  C   UNK     0     146.953 148.219 114.654  0.00  0.00     0.108 A 
HETATM    4  C   UNK     0     145.831 145.995 114.629  0.00  0.00     0.075 A 
HETATM    5  O   UNK     0     148.035 144.407 114.241  0.00  0.00    -0.176 OA
HETATM    6  C   UNK     0     145.591 147.509 114.770  0.00  0.00     0.033 A 
ENDROOT
BRANCH   1   7
HETATM    7  C   UNK     0     149.544 147.398 114.274  0.00  0.00     0.077 C 
BRANCH   7   8
HETATM    8  C   UNK     0     150.175 147.388 112.870  0.00  0.00     0.212 C 
HETATM    9  N   UNK     0     151.578 147.986 112.652  0.00  0.00    -0.070 NA
HETATM   10  O   UNK     0     149.404 146.781 111.683  0.00  0.00    -0.174 OA
ENDBRANCH   7   8
BRANCH   7  11
HETATM   11  C   UNK     0     150.422 147.662 115.511  0.00  0.00     0.047 C 
HETATM   12  C   UNK     0     150.690 149.107 115.971  0.00  0.00     0.007 C 
ENDBRANCH   7  11
ENDBRANCH   1   7
TORSDOF 3
ENDMDL
MODEL 6
REMARK VINA RESULT:      -4.9     21.833     23.393
REMARK  3 active torsions:
REMARK  status: ('A' for Active; 'I' for Inactive)
REMARK    1  A    between atoms: N_1  and  C_2 
REMARK    2  A    between atoms: C_2  and  C_5 
REMARK    3  A    between atoms: C_2  and  C_6 
ROOT
HETATM    1  N   UNK     0     157.800 154.729  96.230  0.00  0.00    -0.311 N 
HETATM    2  C   UNK     0     158.227 155.452  94.941  0.00  0.00     0.171 A 
HETATM    3  C   UNK     0     156.605 155.493  96.831  0.00  0.00     0.108 A 
HETATM    4  C   UNK     0     157.296 156.663  94.743  0.00  0.00     0.075 A 
HETATM    5  O   UNK     0     159.382 155.037  94.010  0.00  0.00    -0.176 OA
HETATM    6  C   UNK     0     156.294 156.688  95.911  0.00  0.00     0.033 A 
ENDROOT
BRANCH   1   7
HETATM    7  C   UNK     0     158.453 153.464  96.818  0.00  0.00     0.077 C 
BRANCH   7   8
HETATM    8  C   UNK     0     159.787 153.568  97.578  0.00  0.00     0.212 C 
HETATM    9  N   UNK     0     160.629 154.855  97.483  0.00  0.00    -0.070 NA
HETATM   10  O   UNK     0     160.280 152.387  98.434  0.00  0.00    -0.174 OA
ENDBRANCH   7   8
BRANCH   7  11
HETATM   11  C   UNK     0     157.771 152.094  96.644  0.00  0.00     0.047 C 
HETATM   12  C   UNK     0     156.558 151.721  97.517  0.00  0.00     0.007 C 
ENDBRANCH   7  11
ENDBRANCH   1   7
TORSDOF 3
ENDMDL
MODEL 7
REMARK VINA RESULT:      -4.7     20.724     22.189
REMARK  3 active torsions:
REMARK  status: ('A' for Active; 'I' for Inactive)
REMARK    1  A    between atoms: N_1  and  C_2 
REMARK    2  A    between atoms: C_2  and  C_5 
REMARK    3  A    between atoms: C_2  and  C_6 
ROOT
HETATM    1  N   UNK     0     157.645 153.622  98.035  0.00  0.00    -0.311 N 
HETATM    2  C   UNK     0     158.316 153.695  99.418  0.00  0.00     0.171 A 
HETATM    3  C   UNK     0     156.240 154.242  98.154  0.00  0.00     0.108 A 
HETATM    4  C   UNK     0     157.326 154.361 100.393  0.00  0.00     0.075 A 
HETATM    5  O   UNK     0     159.729 153.191  99.767  0.00  0.00    -0.176 OA
HETATM    6  C   UNK     0     156.044 154.699  99.612  0.00  0.00     0.033 A 
ENDROOT
BRANCH   1   7
HETATM    7  C   UNK     0     158.268 153.032  96.757  0.00  0.00     0.077 C 
BRANCH   7   8
HETATM    8  C   UNK     0     159.690 153.441  96.333  0.00  0.00     0.212 C 
HETATM    9  N   UNK     0     160.878 152.503  96.617  0.00  0.00    -0.070 NA
HETATM   10  O   UNK     0     159.925 154.789  95.627  0.00  0.00    -0.174 OA
ENDBRANCH   7   8
BRANCH   7  11
HETATM   11  C   UNK     0     157.468 152.031  95.901  0.00  0.00     0.047 C 
HETATM   12  C   UNK     0     157.929 151.701  94.469  0.00  0.00     0.007 C 
ENDBRANCH   7  11
ENDBRANCH   1   7
TORSDOF 3
ENDMDL
MODEL 8
REMARK VINA RESULT:      -4.6     40.300     41.914
REMARK  3 active torsions:
REMARK  status: ('A' for Active; 'I' for Inactive)
REMARK    1  A    between atoms: N_1  and  C_2 
REMARK    2  A    between atoms: C_2  and  C_5 
REMARK    3  A    between atoms: C_2  and  C_6 
ROOT
HETATM    1  N   UNK     0     112.195 169.832 109.388  0.00  0.00    -0.311 N 
HETATM    2  C   UNK     0     110.826 170.419 109.775  0.00  0.00     0.171 A 
HETATM    3  C   UNK     0     112.022 168.315 109.184  0.00  0.00     0.108 A 
HETATM    4  C   UNK     0     109.806 169.265 109.811  0.00  0.00     0.075 A 
HETATM    5  O   UNK     0     110.528 171.900 110.074  0.00  0.00    -0.176 OA
HETATM    6  C   UNK     0     110.545 167.965 109.446  0.00  0.00     0.033 A 
ENDROOT
BRANCH   1   7
HETATM    7  C   UNK     0     113.508 170.622 109.232  0.00  0.00     0.077 C 
BRANCH   7   8
HETATM    8  C   UNK     0     113.975 171.568 110.353  0.00  0.00     0.212 C 
HETATM    9  N   UNK     0     114.381 173.016 110.020  0.00  0.00    -0.070 NA
HETATM   10  O   UNK     0     114.037 171.066 111.808  0.00  0.00    -0.174 OA
ENDBRANCH   7   8
BRANCH   7  11
HETATM   11  C   UNK     0     114.353 170.466 107.954  0.00  0.00     0.047 C 
HETATM   12  C   UNK     0     115.845 170.099 108.057  0.00  0.00     0.007 C 
ENDBRANCH   7  11
ENDBRANCH   1   7
TORSDOF 3
ENDMDL
MODEL 9
REMARK VINA RESULT:      -4.5     40.684     41.835
REMARK  3 active torsions:
REMARK  status: ('A' for Active; 'I' for Inactive)
REMARK    1  A    between atoms: N_1  and  C_2 
REMARK    2  A    between atoms: C_2  and  C_5 
REMARK    3  A    between atoms: C_2  and  C_6 
ROOT
HETATM    1  N   UNK     0     114.106 172.161 108.744  0.00  0.00    -0.311 N 
HETATM    2  C   UNK     0     114.518 171.139 107.669  0.00  0.00     0.171 A 
HETATM    3  C   UNK     0     115.067 173.361 108.653  0.00  0.00     0.108 A 
HETATM    4  C   UNK     0     115.734 171.707 106.913  0.00  0.00     0.075 A 
HETATM    5  O   UNK     0     113.835 169.786 107.397  0.00  0.00    -0.176 OA
HETATM    6  C   UNK     0     116.073 173.080 107.522  0.00  0.00     0.033 A 
ENDROOT
BRANCH   1   7
HETATM    7  C   UNK     0     112.938 172.010 109.736  0.00  0.00     0.077 C 
BRANCH   7   8
HETATM    8  C   UNK     0     112.954 170.877 110.778  0.00  0.00     0.212 C 
HETATM    9  N   UNK     0     113.557 171.125 112.174  0.00  0.00    -0.070 NA
HETATM   10  O   UNK     0     112.368 169.497 110.426  0.00  0.00    -0.174 OA
ENDBRANCH   7   8
BRANCH   7  11
HETATM   11  C   UNK     0     111.752 172.992 109.685  0.00  0.00     0.047 C 
HETATM   12  C   UNK     0     110.324 172.491 109.969  0.00  0.00     0.007 C 
ENDBRANCH   7  11
ENDBRANCH   1   7
TORSDOF 3
ENDMDL
MODEL 10
REMARK VINA RESULT:      -4.5     17.494     19.047
REMARK  3 active torsions:
REMARK  status: ('A' for Active; 'I' for Inactive)
REMARK    1  A    between atoms: N_1  and  C_2 
REMARK    2  A    between atoms: C_2  and  C_5 
REMARK    3  A    between atoms: C_2  and  C_6 
ROOT
HETATM    1  N   UNK     0     140.172 139.395  97.784  0.00  0.00    -0.311 N 
HETATM    2  C   UNK     0     141.256 140.361  97.274  0.00  0.00     0.171 A 
HETATM    3  C   UNK     0     138.862 139.715  97.042  0.00  0.00     0.108 A 
HETATM    4  C   UNK     0     140.616 141.279  96.216  0.00  0.00     0.075 A 
HETATM    5  O   UNK     0     142.724 140.403  97.740  0.00  0.00    -0.176 OA
HETATM    6  C   UNK     0     139.136 140.880  96.072  0.00  0.00     0.033 A 
ENDROOT
BRANCH   1   7
HETATM    7  C   UNK     0     140.365 138.299  98.850  0.00  0.00     0.077 C 
BRANCH   7   8
HETATM    8  C   UNK     0     140.492 136.825  98.424  0.00  0.00     0.212 C 
HETATM    9  N   UNK     0     140.675 135.729  99.491  0.00  0.00    -0.070 NA
HETATM   10  O   UNK     0     140.437 136.446  96.933  0.00  0.00    -0.174 OA
ENDBRANCH   7   8
BRANCH   7  11
HETATM   11  C   UNK     0     140.430 138.679 100.341  0.00  0.00     0.047 C 
HETATM   12  C   UNK     0     139.130 138.848 101.150  0.00  0.00     0.007 C 
ENDBRANCH   7  11
ENDBRANCH   1   7
TORSDOF 3
ENDMDL
