MODEL 1
REMARK VINA RESULT:      -7.6      0.000      0.000
REMARK  0 active torsions:
REMARK  status: ('A' for Active; 'I' for Inactive)
ROOT
HETATM    1 Cl   UNK     0     104.941 161.882  75.214  0.00  0.00    -0.100 Cl
HETATM    2 Cl   UNK     0     106.854 160.846  76.620  0.00  0.00    -0.158 Cl
HETATM    3  O   UNK     0     113.429 158.460  75.109  0.00  0.00    -0.165 OA
HETATM    4  O   UNK     0     112.850 159.199  72.391  0.00  0.00    -0.165 OA
HETATM    5  N   UNK     0     110.441 160.093  72.837  0.00  0.00    -0.222 NA
HETATM    6  N   UNK     0     111.139 159.204  76.109  0.00  0.00    -0.217 NA
HETATM    7  C   UNK     0     108.822 160.334  75.078  0.00  0.00     0.011 A 
HETATM    8  C   UNK     0     109.707 159.766  76.204  0.00  0.00     0.077 A 
HETATM    9  C   UNK     0     109.148 160.479  73.581  0.00  0.00     0.059 A 
HETATM   10  C   UNK     0     109.080 159.760  77.610  0.00  0.00     0.001 A 
HETATM   11  C   UNK     0     112.037 159.070  74.864  0.00  0.00     0.257 A 
HETATM   12  C   UNK     0     107.403 160.801  75.661  0.00  0.00     0.059 A 
HETATM   13  C   UNK     0     111.726 159.466  73.408  0.00  0.00     0.257 A 
HETATM   14  C   UNK     0     108.078 161.102  72.562  0.00  0.00     0.048 A 
HETATM   15  C   UNK     0     106.309 161.428  74.671  0.00  0.00     0.128 A 
HETATM   16  C   UNK     0     106.649 161.580  73.110  0.00  0.00     0.036 A 
HETATM   17  C   UNK     0     107.652 160.300  77.819  0.00  0.00     0.019 A 
HETATM   18  C   UNK     0     109.879 159.214  78.808  0.00  0.00     0.028 A 
HETATM   19  C   UNK     0     107.025 160.294  79.225  0.00  0.00     0.036 A 
HETATM   20  C   UNK     0     109.251 159.208  80.214  0.00  0.00     0.005 A 
HETATM   21  C   UNK     0     107.824 159.748  80.422  0.00  0.00     0.006 A 
ENDROOT
TORSDOF 0
ENDMDL
MODEL 2
REMARK VINA RESULT:      -7.6     44.124     46.826
REMARK  0 active torsions:
REMARK  status: ('A' for Active; 'I' for Inactive)
ROOT
HETATM    1 Cl   UNK     0     101.385 127.467 113.744  0.00  0.00    -0.100 Cl
HETATM    2 Cl   UNK     0     102.461 129.823 113.802  0.00  0.00    -0.158 Cl
HETATM    3  O   UNK     0     102.546 135.382 109.296  0.00  0.00    -0.165 OA
HETATM    4  O   UNK     0     100.914 133.750 107.579  0.00  0.00    -0.165 OA
HETATM    5  N   UNK     0     100.822 131.671 109.150  0.00  0.00    -0.222 NA
HETATM    6  N   UNK     0     102.786 133.634 111.217  0.00  0.00    -0.217 NA
HETATM    7  C   UNK     0     101.866 131.051 111.646  0.00  0.00     0.011 A 
HETATM    8  C   UNK     0     102.634 132.331 112.024  0.00  0.00     0.077 A 
HETATM    9  C   UNK     0     101.060 130.757 110.367  0.00  0.00     0.059 A 
HETATM   10  C   UNK     0     103.345 132.305 113.390  0.00  0.00     0.001 A 
HETATM   11  C   UNK     0     102.206 133.978 109.831  0.00  0.00     0.257 A 
HETATM   12  C   UNK     0     101.994 129.954 112.808  0.00  0.00     0.059 A 
HETATM   13  C   UNK     0     101.332 133.105 108.912  0.00  0.00     0.257 A 
HETATM   14  C   UNK     0     100.326 129.346 110.163  0.00  0.00     0.048 A 
HETATM   15  C   UNK     0     101.273 128.532 112.638  0.00  0.00     0.128 A 
HETATM   16  C   UNK     0     100.433 128.226 111.306  0.00  0.00     0.036 A 
HETATM   17  C   UNK     0     103.259 131.051 114.280  0.00  0.00     0.019 A 
HETATM   18  C   UNK     0     104.142 133.534 113.867  0.00  0.00     0.028 A 
HETATM   19  C   UNK     0     103.969 131.025 115.645  0.00  0.00     0.036 A 
HETATM   20  C   UNK     0     104.853 133.508 115.233  0.00  0.00     0.005 A 
HETATM   21  C   UNK     0     104.766 132.254 116.122  0.00  0.00     0.006 A 
ENDROOT
TORSDOF 0
ENDMDL
MODEL 3
REMARK VINA RESULT:      -7.1     69.000     69.558
REMARK  0 active torsions:
REMARK  status: ('A' for Active; 'I' for Inactive)
ROOT
HETATM    1 Cl   UNK     0     146.020 126.282 125.138  0.00  0.00    -0.100 Cl
HETATM    2 Cl   UNK     0     143.574 125.476 125.413  0.00  0.00    -0.158 Cl
HETATM    3  O   UNK     0     137.919 127.861 129.093  0.00  0.00    -0.165 OA
HETATM    4  O   UNK     0     139.655 129.969 129.996  0.00  0.00    -0.165 OA
HETATM    5  N   UNK     0     141.773 129.182 128.694  0.00  0.00    -0.222 NA
HETATM    6  N   UNK     0     139.684 126.646 127.607  0.00  0.00    -0.217 NA
HETATM    7  C   UNK     0     142.354 127.075 126.984  0.00  0.00     0.011 A 
HETATM    8  C   UNK     0     141.016 126.316 126.907  0.00  0.00     0.077 A 
HETATM    9  C   UNK     0     142.691 128.350 127.779  0.00  0.00     0.059 A 
HETATM   10  C   UNK     0     141.008 125.063 126.013  0.00  0.00     0.001 A 
HETATM   11  C   UNK     0     139.362 127.815 128.557  0.00  0.00     0.257 A 
HETATM   12  C   UNK     0     143.463 126.352 126.079  0.00  0.00     0.059 A 
HETATM   13  C   UNK     0     140.291 128.944 129.040  0.00  0.00     0.257 A 
HETATM   14  C   UNK     0     144.161 128.990 127.724  0.00  0.00     0.048 A 
HETATM   15  C   UNK     0     144.943 126.964 126.001  0.00  0.00     0.128 A 
HETATM   16  C   UNK     0     145.294 128.292 126.829  0.00  0.00     0.036 A 
HETATM   17  C   UNK     0     142.288 124.642 125.265  0.00  0.00     0.019 A 
HETATM   18  C   UNK     0     139.721 124.230 125.865  0.00  0.00     0.028 A 
HETATM   19  C   UNK     0     142.280 123.389 124.371  0.00  0.00     0.036 A 
HETATM   20  C   UNK     0     139.713 122.976 124.971  0.00  0.00     0.005 A 
HETATM   21  C   UNK     0     140.993 122.556 124.224  0.00  0.00     0.006 A 
ENDROOT
TORSDOF 0
ENDMDL
MODEL 4
REMARK VINA RESULT:      -6.9     45.648     48.130
REMARK  0 active torsions:
REMARK  status: ('A' for Active; 'I' for Inactive)
ROOT
HETATM    1 Cl   UNK     0     102.258 126.938 115.624  0.00  0.00    -0.100 Cl
HETATM    2 Cl   UNK     0     102.727 129.259 114.575  0.00  0.00    -0.158 Cl
HETATM    3  O   UNK     0     100.738 132.486 108.506  0.00  0.00    -0.165 OA
HETATM    4  O   UNK     0      99.294 130.065 107.933  0.00  0.00    -0.165 OA
HETATM    5  N   UNK     0      99.962 128.803 110.115  0.00  0.00    -0.222 NA
HETATM    6  N   UNK     0     101.699 131.716 110.804  0.00  0.00    -0.217 NA
HETATM    7  C   UNK     0     101.513 129.409 112.335  0.00  0.00     0.011 A 
HETATM    8  C   UNK     0     102.000 130.839 112.034  0.00  0.00     0.077 A 
HETATM    9  C   UNK     0     100.607 128.503 111.482  0.00  0.00     0.059 A 
HETATM   10  C   UNK     0     102.906 131.476 113.104  0.00  0.00     0.001 A 
HETATM   11  C   UNK     0     100.838 131.379 109.572  0.00  0.00     0.257 A 
HETATM   12  C   UNK     0     102.088 128.905 113.745  0.00  0.00     0.059 A 
HETATM   13  C   UNK     0     100.065 130.083 109.265  0.00  0.00     0.257 A 
HETATM   14  C   UNK     0     100.212 127.030 111.979  0.00  0.00     0.048 A 
HETATM   15  C   UNK     0     101.714 127.437 114.273  0.00  0.00     0.128 A 
HETATM   16  C   UNK     0     100.770 126.494 113.384  0.00  0.00     0.036 A 
HETATM   17  C   UNK     0     103.270 130.686 114.375  0.00  0.00     0.019 A 
HETATM   18  C   UNK     0     103.449 132.904 112.902  0.00  0.00     0.028 A 
HETATM   19  C   UNK     0     104.176 131.324 115.444  0.00  0.00     0.036 A 
HETATM   20  C   UNK     0     104.355 133.541 113.972  0.00  0.00     0.005 A 
HETATM   21  C   UNK     0     104.718 132.750 115.243  0.00  0.00     0.006 A 
ENDROOT
TORSDOF 0
ENDMDL
MODEL 5
REMARK VINA RESULT:      -6.9     86.525     89.359
REMARK  0 active torsions:
REMARK  status: ('A' for Active; 'I' for Inactive)
ROOT
HETATM    1 Cl   UNK     0     158.438 160.307 145.249  0.00  0.00    -0.100 Cl
HETATM    2 Cl   UNK     0     159.877 159.917 147.367  0.00  0.00    -0.158 Cl
HETATM    3  O   UNK     0     166.910 159.934 148.692  0.00  0.00    -0.165 OA
HETATM    4  O   UNK     0     167.226 160.544 145.900  0.00  0.00    -0.165 OA
HETATM    5  N   UNK     0     164.685 160.561 145.314  0.00  0.00    -0.222 NA
HETATM    6  N   UNK     0     164.304 159.827 148.675  0.00  0.00    -0.217 NA
HETATM    7  C   UNK     0     162.340 160.156 146.741  0.00  0.00     0.011 A 
HETATM    8  C   UNK     0     162.851 159.873 148.167  0.00  0.00     0.077 A 
HETATM    9  C   UNK     0     163.156 160.462 145.472  0.00  0.00     0.059 A 
HETATM   10  C   UNK     0     161.765 159.601 149.224  0.00  0.00     0.001 A 
HETATM   11  C   UNK     0     165.606 160.052 147.881  0.00  0.00     0.257 A 
HETATM   12  C   UNK     0     160.738 160.097 146.696  0.00  0.00     0.059 A 
HETATM   13  C   UNK     0     165.775 160.378 146.386  0.00  0.00     0.257 A 
HETATM   14  C   UNK     0     162.426 160.730 144.069  0.00  0.00     0.048 A 
HETATM   15  C   UNK     0     159.975 160.360 145.310  0.00  0.00     0.128 A 
HETATM   16  C   UNK     0     160.825 160.679 143.988  0.00  0.00     0.036 A 
HETATM   17  C   UNK     0     160.278 159.623 148.825  0.00  0.00     0.019 A 
HETATM   18  C   UNK     0     162.166 159.307 150.682  0.00  0.00     0.028 A 
HETATM   19  C   UNK     0     159.192 159.350 149.882  0.00  0.00     0.036 A 
HETATM   20  C   UNK     0     161.081 159.034 151.740  0.00  0.00     0.005 A 
HETATM   21  C   UNK     0     159.593 159.056 151.339  0.00  0.00     0.006 A 
ENDROOT
TORSDOF 0
ENDMDL
MODEL 6
REMARK VINA RESULT:      -6.7     34.389     36.113
REMARK  0 active torsions:
REMARK  status: ('A' for Active; 'I' for Inactive)
ROOT
HETATM    1 Cl   UNK     0     115.660 177.226 108.672  0.00  0.00    -0.100 Cl
HETATM    2 Cl   UNK     0     113.777 175.565 109.306  0.00  0.00    -0.158 Cl
HETATM    3  O   UNK     0     112.897 168.502 108.568  0.00  0.00    -0.165 OA
HETATM    4  O   UNK     0     115.488 168.517 107.320  0.00  0.00    -0.165 OA
HETATM    5  N   UNK     0     115.905 171.081 107.542  0.00  0.00    -0.222 NA
HETATM    6  N   UNK     0     112.786 171.063 109.043  0.00  0.00    -0.217 NA
HETATM    7  C   UNK     0     114.474 173.219 108.584  0.00  0.00     0.011 A 
HETATM    8  C   UNK     0     113.184 172.551 109.096  0.00  0.00     0.077 A 
HETATM    9  C   UNK     0     115.684 172.565 107.892  0.00  0.00     0.059 A 
HETATM   10  C   UNK     0     112.155 173.494 109.747  0.00  0.00     0.001 A 
HETATM   11  C   UNK     0     113.581 169.877 108.464  0.00  0.00     0.257 A 
HETATM   12  C   UNK     0     114.437 174.798 108.861  0.00  0.00     0.059 A 
HETATM   13  C   UNK     0     114.969 169.885 107.796  0.00  0.00     0.257 A 
HETATM   14  C   UNK     0     116.943 173.446 107.431  0.00  0.00     0.048 A 
HETATM   15  C   UNK     0     115.679 175.709 108.413  0.00  0.00     0.128 A 
HETATM   16  C   UNK     0     116.940 175.028 107.693  0.00  0.00     0.036 A 
HETATM   17  C   UNK     0     112.451 175.001 109.852  0.00  0.00     0.019 A 
HETATM   18  C   UNK     0     110.830 172.929 110.293  0.00  0.00     0.028 A 
HETATM   19  C   UNK     0     111.423 175.945 110.504  0.00  0.00     0.036 A 
HETATM   20  C   UNK     0     109.802 173.872 110.944  0.00  0.00     0.005 A 
HETATM   21  C   UNK     0     110.099 175.380 111.049  0.00  0.00     0.006 A 
ENDROOT
TORSDOF 0
ENDMDL
MODEL 7
REMARK VINA RESULT:      -6.7     42.123     44.728
REMARK  0 active torsions:
REMARK  status: ('A' for Active; 'I' for Inactive)
ROOT
HETATM    1 Cl   UNK     0     134.361 135.712  97.295  0.00  0.00    -0.100 Cl
HETATM    2 Cl   UNK     0     136.423 135.686  98.863  0.00  0.00    -0.158 Cl
HETATM    3  O   UNK     0     137.397 136.910 105.846  0.00  0.00    -0.165 OA
HETATM    4  O   UNK     0     134.563 137.392 105.946  0.00  0.00    -0.165 OA
HETATM    5  N   UNK     0     134.104 136.966 103.415  0.00  0.00    -0.222 NA
HETATM    6  N   UNK     0     137.513 136.386 103.294  0.00  0.00    -0.217 NA
HETATM    7  C   UNK     0     135.665 136.278 101.226  0.00  0.00     0.011 A 
HETATM    8  C   UNK     0     137.076 136.167 101.833  0.00  0.00     0.077 A 
HETATM    9  C   UNK     0     134.342 136.633 101.930  0.00  0.00     0.059 A 
HETATM   10  C   UNK     0     138.199 135.789 100.849  0.00  0.00     0.001 A 
HETATM   11  C   UNK     0     136.646 136.768 104.509  0.00  0.00     0.257 A 
HETATM   12  C   UNK     0     135.702 135.960  99.655  0.00  0.00     0.059 A 
HETATM   13  C   UNK     0     135.129 137.026 104.562  0.00  0.00     0.257 A 
HETATM   14  C   UNK     0     132.965 136.695 101.111  0.00  0.00     0.048 A 
HETATM   15  C   UNK     0     134.343 136.014  98.805  0.00  0.00     0.128 A 
HETATM   16  C   UNK     0     132.966 136.384  99.538  0.00  0.00     0.036 A 
HETATM   17  C   UNK     0     137.873 135.548  99.364  0.00  0.00     0.019 A 
HETATM   18  C   UNK     0     139.649 135.652 101.351  0.00  0.00     0.028 A 
HETATM   19  C   UNK     0     138.996 135.170  98.380  0.00  0.00     0.036 A 
HETATM   20  C   UNK     0     140.772 135.274 100.368  0.00  0.00     0.005 A 
HETATM   21  C   UNK     0     140.445 135.033  98.882  0.00  0.00     0.006 A 
ENDROOT
TORSDOF 0
ENDMDL
MODEL 8
REMARK VINA RESULT:      -6.5     56.607     59.381
REMARK  0 active torsions:
REMARK  status: ('A' for Active; 'I' for Inactive)
ROOT
HETATM    1 Cl   UNK     0     100.806 145.934 134.928  0.00  0.00    -0.100 Cl
HETATM    2 Cl   UNK     0     103.322 145.322 134.901  0.00  0.00    -0.158 Cl
HETATM    3  O   UNK     0     108.865 147.180 130.774  0.00  0.00    -0.165 OA
HETATM    4  O   UNK     0     106.979 148.798 129.325  0.00  0.00    -0.165 OA
HETATM    5  N   UNK     0     104.897 148.184 130.769  0.00  0.00    -0.222 NA
HETATM    6  N   UNK     0     107.166 146.237 132.512  0.00  0.00    -0.217 NA
HETATM    7  C   UNK     0     104.448 146.559 132.973  0.00  0.00     0.011 A 
HETATM    8  C   UNK     0     105.845 145.979 133.262  0.00  0.00     0.077 A 
HETATM    9  C   UNK     0     104.026 147.540 131.864  0.00  0.00     0.059 A 
HETATM   10  C   UNK     0     105.934 145.013 134.458  0.00  0.00     0.001 A 
HETATM   11  C   UNK     0     107.414 147.140 131.289  0.00  0.00     0.257 A 
HETATM   12  C   UNK     0     103.377 145.997 134.027  0.00  0.00     0.059 A 
HETATM   13  C   UNK     0     106.405 148.006 130.513  0.00  0.00     0.257 A 
HETATM   14  C   UNK     0     102.503 148.027 131.732  0.00  0.00     0.048 A 
HETATM   15  C   UNK     0     101.846 146.464 133.924  0.00  0.00     0.128 A 
HETATM   16  C   UNK     0     101.407 147.486 132.769  0.00  0.00     0.036 A 
HETATM   17  C   UNK     0     104.673 144.684 135.278  0.00  0.00     0.019 A 
HETATM   18  C   UNK     0     107.285 144.376 134.834  0.00  0.00     0.028 A 
HETATM   19  C   UNK     0     104.762 143.718 136.474  0.00  0.00     0.036 A 
HETATM   20  C   UNK     0     107.374 143.410 136.031  0.00  0.00     0.005 A 
HETATM   21  C   UNK     0     106.112 143.081 136.850  0.00  0.00     0.006 A 
ENDROOT
TORSDOF 0
ENDMDL
MODEL 9
REMARK VINA RESULT:      -6.4     35.200     36.369
REMARK  0 active torsions:
REMARK  status: ('A' for Active; 'I' for Inactive)
ROOT
HETATM    1 Cl   UNK     0     110.875 179.084 107.567  0.00  0.00    -0.100 Cl
HETATM    2 Cl   UNK     0     109.195 177.115 107.654  0.00  0.00    -0.158 Cl
HETATM    3  O   UNK     0     109.440 170.458 110.268  0.00  0.00    -0.165 OA
HETATM    4  O   UNK     0     112.125 171.095 111.077  0.00  0.00    -0.165 OA
HETATM    5  N   UNK     0     112.137 173.536 110.159  0.00  0.00    -0.222 NA
HETATM    6  N   UNK     0     108.906 172.768 109.185  0.00  0.00    -0.217 NA
HETATM    7  C   UNK     0     110.302 175.142 108.834  0.00  0.00     0.011 A 
HETATM    8  C   UNK     0     109.074 174.222 108.701  0.00  0.00     0.077 A 
HETATM    9  C   UNK     0     111.665 174.837 109.482  0.00  0.00     0.059 A 
HETATM   10  C   UNK     0     107.853 174.835 107.991  0.00  0.00     0.001 A 
HETATM   11  C   UNK     0     109.925 171.878 109.920  0.00  0.00     0.257 A 
HETATM   12  C   UNK     0     110.005 176.574 108.176  0.00  0.00     0.059 A 
HETATM   13  C   UNK     0     111.362 172.219 110.354  0.00  0.00     0.257 A 
HETATM   14  C   UNK     0     112.826 175.943 109.518  0.00  0.00     0.048 A 
HETATM   15  C   UNK     0     111.143 177.704 108.194  0.00  0.00     0.128 A 
HETATM   16  C   UNK     0     112.563 177.386 108.869  0.00  0.00     0.036 A 
HETATM   17  C   UNK     0     107.913 176.282 107.467  0.00  0.00     0.019 A 
HETATM   18  C   UNK     0     106.571 174.001 107.805  0.00  0.00     0.028 A 
HETATM   19  C   UNK     0     106.691 176.895 106.757  0.00  0.00     0.036 A 
HETATM   20  C   UNK     0     105.350 174.614 107.095  0.00  0.00     0.005 A 
HETATM   21  C   UNK     0     105.411 176.061 106.571  0.00  0.00     0.006 A 
ENDROOT
TORSDOF 0
ENDMDL
MODEL 10
REMARK VINA RESULT:      -6.3     41.815     44.219
REMARK  0 active torsions:
REMARK  status: ('A' for Active; 'I' for Inactive)
ROOT
HETATM    1 Cl   UNK     0     133.385 139.030 102.034  0.00  0.00    -0.100 Cl
HETATM    2 Cl   UNK     0     135.418 138.798 100.446  0.00  0.00    -0.158 Cl
HETATM    3  O   UNK     0     140.828 134.144  99.915  0.00  0.00    -0.165 OA
HETATM    4  O   UNK     0     139.641 132.821 102.176  0.00  0.00    -0.165 OA
HETATM    5  N   UNK     0     137.633 134.461 102.454  0.00  0.00    -0.222 NA
HETATM    6  N   UNK     0     139.061 136.053  99.733  0.00  0.00    -0.217 NA
HETATM    7  C   UNK     0     136.766 136.743 101.133  0.00  0.00     0.011 A 
HETATM    8  C   UNK     0     137.826 136.924 100.030  0.00  0.00     0.077 A 
HETATM    9  C   UNK     0     136.680 135.648 102.212  0.00  0.00     0.059 A 
HETATM   10  C   UNK     0     137.623 138.135  99.101  0.00  0.00     0.001 A 
HETATM   11  C   UNK     0     139.542 134.786 100.466  0.00  0.00     0.257 A 
HETATM   12  C   UNK     0     135.663 137.903 101.049  0.00  0.00     0.059 A 
HETATM   13  C   UNK     0     138.906 134.078 101.677  0.00  0.00     0.257 A 
HETATM   14  C   UNK     0     135.484 135.636 103.280  0.00  0.00     0.048 A 
HETATM   15  C   UNK     0     134.453 137.923 102.101  0.00  0.00     0.128 A 
HETATM   16  C   UNK     0     134.364 136.782 103.225  0.00  0.00     0.036 A 
HETATM   17  C   UNK     0     136.419 139.073  99.309  0.00  0.00     0.019 A 
HETATM   18  C   UNK     0     138.625 138.409  97.963  0.00  0.00     0.028 A 
HETATM   19  C   UNK     0     136.217 140.284  98.380  0.00  0.00     0.036 A 
HETATM   20  C   UNK     0     138.423 139.620  97.034  0.00  0.00     0.005 A 
HETATM   21  C   UNK     0     137.219 140.558  97.243  0.00  0.00     0.006 A 
ENDROOT
TORSDOF 0
ENDMDL
