MODEL 1
REMARK VINA RESULT:      -7.3      0.000      0.000
REMARK  1 active torsions:
REMARK  status: ('A' for Active; 'I' for Inactive)
REMARK    1  A    between atoms: C_10  and  C_15 
ROOT
HETATM    1 Cl   UNK     0     134.168 136.540 100.158  0.00  0.00    -0.091 Cl
HETATM    2  N   UNK     0     138.989 139.499  97.492  0.00  0.00    -0.300 N 
HETATM    3  N   UNK     0     140.828 137.953  99.982  0.00  0.00    -0.243 NA
HETATM    4  N   UNK     0     139.991 140.992  95.787  0.00  0.00    -0.251 NA
HETATM    5  C   UNK     0     137.919 138.704  98.265  0.00  0.00     0.040 A 
HETATM    6  C   UNK     0     140.502 139.585  97.761  0.00  0.00     0.086 A 
HETATM    7  C   UNK     0     138.100 137.798  99.498  0.00  0.00     0.012 A 
HETATM    8  C   UNK     0     141.321 138.896  98.870  0.00  0.00     0.114 A 
HETATM    9  C   UNK     0     139.395 137.464 100.262  0.00  0.00     0.077 A 
HETATM   10  C   UNK     0     138.679 140.370  96.272  0.00  0.00     0.120 A 
HETATM   11  C   UNK     0     141.115 140.508  96.705  0.00  0.00     0.172 A 
HETATM   12  C   UNK     0     136.471 138.925  97.610  0.00  0.00     0.049 A 
HETATM   13  C   UNK     0     136.845 137.051 100.161  0.00  0.00     0.062 A 
HETATM   14  C   UNK     0     137.290 140.583  95.643  0.00  0.00     0.072 C 
HETATM   15  C   UNK     0     135.195 138.193  98.248  0.00  0.00     0.040 A 
HETATM   16  C   UNK     0     135.383 137.250  99.532  0.00  0.00     0.018 A 
ENDROOT
BRANCH   9  17
HETATM   17  C   UNK     0     139.234 136.516 101.464  0.00  0.00     0.018 A 
HETATM   18  C   UNK     0     139.911 135.132 101.449  0.00  0.00     0.115 A 
HETATM   19  F   UNK     0     140.749 134.698 100.232  0.00  0.00    -0.209 F 
HETATM   20  C   UNK     0     139.751 134.183 102.651  0.00  0.00     0.056 A 
HETATM   21  C   UNK     0     138.913 134.618 103.868  0.00  0.00     0.007 A 
HETATM   22  C   UNK     0     138.236 136.000 103.883  0.00  0.00     0.005 A 
HETATM   23  C   UNK     0     138.396 136.950 102.681  0.00  0.00     0.030 A 
ENDBRANCH   9  17
TORSDOF 1
ENDMDL
MODEL 2
REMARK VINA RESULT:      -7.1     41.671     43.818
REMARK  1 active torsions:
REMARK  status: ('A' for Active; 'I' for Inactive)
REMARK    1  A    between atoms: C_10  and  C_15 
ROOT
HETATM    1 Cl   UNK     0     107.461 164.734  77.019  0.00  0.00    -0.091 Cl
HETATM    2  N   UNK     0     110.813 160.882  73.410  0.00  0.00    -0.300 N 
HETATM    3  N   UNK     0     111.171 159.063  76.332  0.00  0.00    -0.243 NA
HETATM    4  N   UNK     0     111.813 160.195  71.248  0.00  0.00    -0.251 NA
HETATM    5  C   UNK     0     110.022 161.718  74.432  0.00  0.00     0.040 A 
HETATM    6  C   UNK     0     111.575 159.563  73.632  0.00  0.00     0.086 A 
HETATM    7  C   UNK     0     109.797 161.442  75.931  0.00  0.00     0.012 A 
HETATM    8  C   UNK     0     111.735 158.753  74.933  0.00  0.00     0.114 A 
HETATM    9  C   UNK     0     110.309 160.260  76.776  0.00  0.00     0.077 A 
HETATM   10  C   UNK     0     110.963 161.267  71.936  0.00  0.00     0.120 A 
HETATM   11  C   UNK     0     112.190 159.144  72.294  0.00  0.00     0.172 A 
HETATM   12  C   UNK     0     109.397 163.020  73.733  0.00  0.00     0.049 A 
HETATM   13  C   UNK     0     108.933 162.447  76.833  0.00  0.00     0.062 A 
HETATM   14  C   UNK     0     110.365 162.516  71.263  0.00  0.00     0.072 C 
HETATM   15  C   UNK     0     108.527 164.046  74.606  0.00  0.00     0.040 A 
HETATM   16  C   UNK     0     108.294 163.758  76.166  0.00  0.00     0.018 A 
ENDROOT
BRANCH   9  17
HETATM   17  C   UNK     0     109.904 160.278  78.262  0.00  0.00     0.018 A 
HETATM   18  C   UNK     0     110.722 161.106  79.272  0.00  0.00     0.115 A 
HETATM   19  F   UNK     0     111.943 161.914  78.796  0.00  0.00    -0.209 F 
HETATM   20  C   UNK     0     110.318 161.124  80.758  0.00  0.00     0.056 A 
HETATM   21  C   UNK     0     109.097 160.315  81.234  0.00  0.00     0.007 A 
HETATM   22  C   UNK     0     108.280 159.489  80.225  0.00  0.00     0.005 A 
HETATM   23  C   UNK     0     108.684 159.470  78.738  0.00  0.00     0.030 A 
ENDBRANCH   9  17
TORSDOF 1
ENDMDL
MODEL 3
REMARK VINA RESULT:      -6.6     31.414     33.716
REMARK  1 active torsions:
REMARK  status: ('A' for Active; 'I' for Inactive)
REMARK    1  A    between atoms: C_10  and  C_15 
ROOT
HETATM    1 Cl   UNK     0     166.999 147.049 107.125  0.00  0.00    -0.091 Cl
HETATM    2  N   UNK     0     170.034 150.476 111.385  0.00  0.00    -0.300 N 
HETATM    3  N   UNK     0     166.845 151.317 112.431  0.00  0.00    -0.243 NA
HETATM    4  N   UNK     0     172.092 151.341 112.461  0.00  0.00    -0.251 NA
HETATM    5  C   UNK     0     169.136 149.691 110.410  0.00  0.00     0.040 A 
HETATM    6  C   UNK     0     169.617 151.405 112.539  0.00  0.00     0.086 A 
HETATM    7  C   UNK     0     167.598 149.642 110.349  0.00  0.00     0.012 A 
HETATM    8  C   UNK     0     168.197 151.779 113.005  0.00  0.00     0.114 A 
HETATM    9  C   UNK     0     166.578 150.366 111.249  0.00  0.00     0.077 A 
HETATM   10  C   UNK     0     171.564 150.441 111.341  0.00  0.00     0.120 A 
HETATM   11  C   UNK     0     170.891 151.936 113.199  0.00  0.00     0.172 A 
HETATM   12  C   UNK     0     170.028 148.856 109.371  0.00  0.00     0.049 A 
HETATM   13  C   UNK     0     166.845 148.755 109.246  0.00  0.00     0.062 A 
HETATM   14  C   UNK     0     172.421 149.639 110.345  0.00  0.00     0.072 C 
HETATM   15  C   UNK     0     169.308 147.957 108.254  0.00  0.00     0.040 A 
HETATM   16  C   UNK     0     167.706 147.906 108.191  0.00  0.00     0.018 A 
ENDROOT
BRANCH   9  17
HETATM   17  C   UNK     0     165.096 150.104 110.923  0.00  0.00     0.018 A 
HETATM   18  C   UNK     0     164.437 150.805 109.719  0.00  0.00     0.115 A 
HETATM   19  F   UNK     0     165.261 151.768 108.844  0.00  0.00    -0.209 F 
HETATM   20  C   UNK     0     162.956 150.543 109.392  0.00  0.00     0.056 A 
HETATM   21  C   UNK     0     162.133 149.580 110.268  0.00  0.00     0.007 A 
HETATM   22  C   UNK     0     162.791 148.879 111.470  0.00  0.00     0.005 A 
HETATM   23  C   UNK     0     164.273 149.141 111.798  0.00  0.00     0.030 A 
ENDBRANCH   9  17
TORSDOF 1
ENDMDL
MODEL 4
REMARK VINA RESULT:      -6.6     41.514     43.445
REMARK  1 active torsions:
REMARK  status: ('A' for Active; 'I' for Inactive)
REMARK    1  A    between atoms: C_10  and  C_15 
ROOT
HETATM    1 Cl   UNK     0     110.718 154.231 123.978  0.00  0.00    -0.091 Cl
HETATM    2  N   UNK     0     112.981 152.015 129.370  0.00  0.00    -0.300 N 
HETATM    3  N   UNK     0     110.778 154.275 130.789  0.00  0.00    -0.243 NA
HETATM    4  N   UNK     0     114.457 150.534 130.701  0.00  0.00    -0.251 NA
HETATM    5  C   UNK     0     112.320 152.667 128.141  0.00  0.00     0.040 A 
HETATM    6  C   UNK     0     112.724 152.298 130.862  0.00  0.00     0.086 A 
HETATM    7  C   UNK     0     111.240 153.764 128.100  0.00  0.00     0.012 A 
HETATM    8  C   UNK     0     111.744 153.305 131.493  0.00  0.00     0.114 A 
HETATM    9  C   UNK     0     110.554 154.480 129.279  0.00  0.00     0.077 A 
HETATM   10  C   UNK     0     114.051 150.925 129.277  0.00  0.00     0.120 A 
HETATM   11  C   UNK     0     113.639 151.381 131.678  0.00  0.00     0.172 A 
HETATM   12  C   UNK     0     112.912 152.044 126.786  0.00  0.00     0.049 A 
HETATM   13  C   UNK     0     110.678 154.314 126.703  0.00  0.00     0.062 A 
HETATM   14  C   UNK     0     114.621 150.326 127.978  0.00  0.00     0.072 C 
HETATM   15  C   UNK     0     112.373 152.571 125.371  0.00  0.00     0.040 A 
HETATM   16  C   UNK     0     111.247 153.714 125.329  0.00  0.00     0.018 A 
ENDROOT
BRANCH   9  17
HETATM   17  C   UNK     0     109.505 155.540 128.896  0.00  0.00     0.018 A 
HETATM   18  C   UNK     0     108.079 155.106 128.504  0.00  0.00     0.115 A 
HETATM   19  F   UNK     0     107.704 153.612 128.495  0.00  0.00    -0.209 F 
HETATM   20  C   UNK     0     107.030 156.165 128.121  0.00  0.00     0.056 A 
HETATM   21  C   UNK     0     107.405 157.659 128.130  0.00  0.00     0.007 A 
HETATM   22  C   UNK     0     108.829 158.093 128.522  0.00  0.00     0.005 A 
HETATM   23  C   UNK     0     109.879 157.033 128.906  0.00  0.00     0.030 A 
ENDBRANCH   9  17
TORSDOF 1
ENDMDL
MODEL 5
REMARK VINA RESULT:      -6.4     35.775     38.858
REMARK  1 active torsions:
REMARK  status: ('A' for Active; 'I' for Inactive)
REMARK    1  A    between atoms: C_10  and  C_15 
ROOT
HETATM    1 Cl   UNK     0     102.139 130.966  78.458  0.00  0.00    -0.091 Cl
HETATM    2  N   UNK     0     107.308 132.139  81.775  0.00  0.00    -0.300 N 
HETATM    3  N   UNK     0     107.838 134.580  79.380  0.00  0.00    -0.243 NA
HETATM    4  N   UNK     0     108.856 131.729  83.667  0.00  0.00    -0.251 NA
HETATM    5  C   UNK     0     106.087 131.982  80.850  0.00  0.00     0.040 A 
HETATM    6  C   UNK     0     108.476 133.136  81.662  0.00  0.00     0.086 A 
HETATM    7  C   UNK     0     105.732 132.783  79.583  0.00  0.00     0.012 A 
HETATM    8  C   UNK     0     108.712 134.223  80.596  0.00  0.00     0.114 A 
HETATM    9  C   UNK     0     106.512 133.939  78.929  0.00  0.00     0.077 A 
HETATM   10  C   UNK     0     107.548 131.274  83.014  0.00  0.00     0.120 A 
HETATM   11  C   UNK     0     109.428 132.878  82.833  0.00  0.00     0.172 A 
HETATM   12  C   UNK     0     105.133 130.803  81.373  0.00  0.00     0.049 A 
HETATM   13  C   UNK     0     104.399 132.461  78.751  0.00  0.00     0.062 A 
HETATM   14  C   UNK     0     106.633 130.142  83.517  0.00  0.00     0.072 C 
HETATM   15  C   UNK     0     103.792 130.454  80.565  0.00  0.00     0.040 A 
HETATM   16  C   UNK     0     103.423 131.288  79.246  0.00  0.00     0.018 A 
ENDROOT
BRANCH   9  17
HETATM   17  C   UNK     0     105.881 134.533  77.656  0.00  0.00     0.018 A 
HETATM   18  C   UNK     0     106.579 134.349  76.294  0.00  0.00     0.115 A 
HETATM   19  F   UNK     0     107.906 133.573  76.207  0.00  0.00    -0.209 F 
HETATM   20  C   UNK     0     105.949 134.942  75.021  0.00  0.00     0.056 A 
HETATM   21  C   UNK     0     104.621 135.719  75.108  0.00  0.00     0.007 A 
HETATM   22  C   UNK     0     103.925 135.902  76.468  0.00  0.00     0.005 A 
HETATM   23  C   UNK     0     104.555 135.309  77.743  0.00  0.00     0.030 A 
ENDBRANCH   9  17
TORSDOF 1
ENDMDL
MODEL 6
REMARK VINA RESULT:      -6.4     43.935     47.062
REMARK  1 active torsions:
REMARK  status: ('A' for Active; 'I' for Inactive)
REMARK    1  A    between atoms: C_10  and  C_15 
ROOT
HETATM    1 Cl   UNK     0     121.054 182.994  92.444  0.00  0.00    -0.091 Cl
HETATM    2  N   UNK     0     119.728 176.976  93.508  0.00  0.00    -0.300 N 
HETATM    3  N   UNK     0     116.458 178.104  93.612  0.00  0.00    -0.243 NA
HETATM    4  N   UNK     0     120.360 174.601  93.828  0.00  0.00    -0.251 NA
HETATM    5  C   UNK     0     119.880 178.488  93.256  0.00  0.00     0.040 A 
HETATM    6  C   UNK     0     118.441 176.167  93.747  0.00  0.00     0.086 A 
HETATM    7  C   UNK     0     118.780 179.564  93.181  0.00  0.00     0.012 A 
HETATM    8  C   UNK     0     116.985 176.669  93.793  0.00  0.00     0.114 A 
HETATM    9  C   UNK     0     117.257 179.393  93.340  0.00  0.00     0.077 A 
HETATM   10  C   UNK     0     120.910 176.005  93.559  0.00  0.00     0.120 A 
HETATM   11  C   UNK     0     118.837 174.701  93.944  0.00  0.00     0.172 A 
HETATM   12  C   UNK     0     121.424 178.875  93.062  0.00  0.00     0.049 A 
HETATM   13  C   UNK     0     119.148 181.101  92.907  0.00  0.00     0.062 A 
HETATM   14  C   UNK     0     122.393 176.374  93.373  0.00  0.00     0.072 C 
HETATM   15  C   UNK     0     121.828 180.403  92.786  0.00  0.00     0.040 A 
HETATM   16  C   UNK     0     120.683 181.523  92.708  0.00  0.00     0.018 A 
ENDROOT
BRANCH   9  17
HETATM   17  C   UNK     0     116.424 180.681  93.208  0.00  0.00     0.018 A 
HETATM   18  C   UNK     0     116.132 181.270  91.815  0.00  0.00     0.115 A 
HETATM   19  F   UNK     0     116.673 180.570  90.554  0.00  0.00    -0.209 F 
HETATM   20  C   UNK     0     115.299 182.558  91.682  0.00  0.00     0.056 A 
HETATM   21  C   UNK     0     114.757 183.258  92.943  0.00  0.00     0.007 A 
HETATM   22  C   UNK     0     115.049 182.669  94.335  0.00  0.00     0.005 A 
HETATM   23  C   UNK     0     115.882 181.380  94.468  0.00  0.00     0.030 A 
ENDBRANCH   9  17
TORSDOF 1
ENDMDL
MODEL 7
REMARK VINA RESULT:      -6.2     39.464     41.672
REMARK  1 active torsions:
REMARK  status: ('A' for Active; 'I' for Inactive)
REMARK    1  A    between atoms: C_10  and  C_15 
ROOT
HETATM    1 Cl   UNK     0      95.568 129.097 112.256  0.00  0.00    -0.091 Cl
HETATM    2  N   UNK     0      99.208 134.002 110.916  0.00  0.00    -0.300 N 
HETATM    3  N   UNK     0     100.847 131.748 108.865  0.00  0.00    -0.243 NA
HETATM    4  N   UNK     0      99.882 136.376 111.142  0.00  0.00    -0.251 NA
HETATM    5  C   UNK     0      98.413 132.701 111.134  0.00  0.00     0.040 A 
HETATM    6  C   UNK     0     100.429 134.241 110.010  0.00  0.00     0.086 A 
HETATM    7  C   UNK     0      98.645 131.316 110.499  0.00  0.00     0.012 A 
HETATM    8  C   UNK     0     101.159 133.238 109.097  0.00  0.00     0.114 A 
HETATM    9  C   UNK     0      99.728 130.893 109.489  0.00  0.00     0.077 A 
HETATM   10  C   UNK     0      98.874 135.323 111.612  0.00  0.00     0.120 A 
HETATM   11  C   UNK     0     100.841 135.708 110.154  0.00  0.00     0.172 A 
HETATM   12  C   UNK     0      97.216 132.939 112.175  0.00  0.00     0.049 A 
HETATM   13  C   UNK     0      97.695 130.076 110.861  0.00  0.00     0.062 A 
HETATM   14  C   UNK     0      97.726 135.554 112.612  0.00  0.00     0.072 C 
HETATM   15  C   UNK     0      96.248 131.720 112.559  0.00  0.00     0.040 A 
HETATM   16  C   UNK     0      96.489 130.279 111.898  0.00  0.00     0.018 A 
ENDROOT
BRANCH   9  17
HETATM   17  C   UNK     0      99.686 129.419 109.045  0.00  0.00     0.018 A 
HETATM   18  C   UNK     0     100.336 128.332 109.922  0.00  0.00     0.115 A 
HETATM   19  F   UNK     0     101.028 128.720 111.243  0.00  0.00    -0.209 F 
HETATM   20  C   UNK     0     100.295 126.858 109.479  0.00  0.00     0.056 A 
HETATM   21  C   UNK     0      99.603 126.470 108.159  0.00  0.00     0.007 A 
HETATM   22  C   UNK     0      98.953 127.556 107.283  0.00  0.00     0.005 A 
HETATM   23  C   UNK     0      98.995 129.031 107.726  0.00  0.00     0.030 A 
ENDBRANCH   9  17
TORSDOF 1
ENDMDL
MODEL 8
REMARK VINA RESULT:      -6.0     39.068     41.367
REMARK  1 active torsions:
REMARK  status: ('A' for Active; 'I' for Inactive)
REMARK    1  A    between atoms: C_10  and  C_15 
ROOT
HETATM    1 Cl   UNK     0      95.463 129.592 112.265  0.00  0.00    -0.091 Cl
HETATM    2  N   UNK     0      99.672 134.095 111.211  0.00  0.00    -0.300 N 
HETATM    3  N   UNK     0     101.841 131.439 110.747  0.00  0.00    -0.243 NA
HETATM    4  N   UNK     0     100.363 136.467 111.012  0.00  0.00    -0.251 NA
HETATM    5  C   UNK     0      98.767 132.870 111.441  0.00  0.00     0.040 A 
HETATM    6  C   UNK     0     101.171 134.129 110.860  0.00  0.00     0.086 A 
HETATM    7  C   UNK     0      99.139 131.376 111.378  0.00  0.00     0.012 A 
HETATM    8  C   UNK     0     102.137 132.947 110.654  0.00  0.00     0.114 A 
HETATM    9  C   UNK     0     100.507 130.740 111.069  0.00  0.00     0.077 A 
HETATM   10  C   UNK     0      99.179 135.541 111.303  0.00  0.00     0.120 A 
HETATM   11  C   UNK     0     101.591 135.596 110.739  0.00  0.00     0.172 A 
HETATM   12  C   UNK     0      97.270 133.332 111.783  0.00  0.00     0.049 A 
HETATM   13  C   UNK     0      98.039 130.242 111.653  0.00  0.00     0.062 A 
HETATM   14  C   UNK     0      97.742 135.986 111.631  0.00  0.00     0.072 C 
HETATM   15  C   UNK     0      96.145 132.225 112.064  0.00  0.00     0.040 A 
HETATM   16  C   UNK     0      96.532 130.669 111.998  0.00  0.00     0.018 A 
ENDROOT
BRANCH   9  17
HETATM   17  C   UNK     0     100.545 129.200 111.085  0.00  0.00     0.018 A 
HETATM   18  C   UNK     0     100.198 128.409 109.809  0.00  0.00     0.115 A 
HETATM   19  F   UNK     0      99.813 129.158 108.519  0.00  0.00    -0.209 F 
HETATM   20  C   UNK     0     100.235 126.870 109.824  0.00  0.00     0.056 A 
HETATM   21  C   UNK     0     100.620 126.122 111.114  0.00  0.00     0.007 A 
HETATM   22  C   UNK     0     100.967 126.912 112.388  0.00  0.00     0.005 A 
HETATM   23  C   UNK     0     100.930 128.452 112.374  0.00  0.00     0.030 A 
ENDBRANCH   9  17
TORSDOF 1
ENDMDL
MODEL 9
REMARK VINA RESULT:      -6.0     39.341     41.832
REMARK  1 active torsions:
REMARK  status: ('A' for Active; 'I' for Inactive)
REMARK    1  A    between atoms: C_10  and  C_15 
ROOT
HETATM    1 Cl   UNK     0     103.147 126.355  79.632  0.00  0.00    -0.091 Cl
HETATM    2  N   UNK     0     100.023 129.115  84.293  0.00  0.00    -0.300 N 
HETATM    3  N   UNK     0     101.520 131.993  83.088  0.00  0.00    -0.243 NA
HETATM    4  N   UNK     0      98.491 129.090  86.240  0.00  0.00    -0.251 NA
HETATM    5  C   UNK     0     100.855 128.597  83.105  0.00  0.00     0.040 A 
HETATM    6  C   UNK     0      99.890 130.557  84.815  0.00  0.00     0.086 A 
HETATM    7  C   UNK     0     101.760 129.394  82.146  0.00  0.00     0.012 A 
HETATM    8  C   UNK     0     100.556 131.839  84.279  0.00  0.00     0.114 A 
HETATM    9  C   UNK     0     102.056 130.906  82.139  0.00  0.00     0.077 A 
HETATM   10  C   UNK     0      99.157 128.214  85.176  0.00  0.00     0.120 A 
HETATM   11  C   UNK     0      98.943 130.535  86.018  0.00  0.00     0.172 A 
HETATM   12  C   UNK     0     100.678 127.011  82.942  0.00  0.00     0.049 A 
HETATM   13  C   UNK     0     102.550 128.660  80.959  0.00  0.00     0.062 A 
HETATM   14  C   UNK     0      98.986 126.692  85.022  0.00  0.00     0.072 C 
HETATM   15  C   UNK     0     101.453 126.245  81.765  0.00  0.00     0.040 A 
HETATM   16  C   UNK     0     102.395 127.075  80.767  0.00  0.00     0.018 A 
ENDROOT
BRANCH   9  17
HETATM   17  C   UNK     0     103.014 131.393  81.036  0.00  0.00     0.018 A 
HETATM   18  C   UNK     0     104.527 131.479  81.314  0.00  0.00     0.115 A 
HETATM   19  F   UNK     0     105.080 131.078  82.695  0.00  0.00    -0.209 F 
HETATM   20  C   UNK     0     105.486 131.966  80.213  0.00  0.00     0.056 A 
HETATM   21  C   UNK     0     104.932 132.366  78.832  0.00  0.00     0.007 A 
HETATM   22  C   UNK     0     103.420 132.280  78.555  0.00  0.00     0.005 A 
HETATM   23  C   UNK     0     102.461 131.793  79.657  0.00  0.00     0.030 A 
ENDBRANCH   9  17
TORSDOF 1
ENDMDL
MODEL 10
REMARK VINA RESULT:      -6.0     25.386     27.562
REMARK  1 active torsions:
REMARK  status: ('A' for Active; 'I' for Inactive)
REMARK    1  A    between atoms: C_10  and  C_15 
ROOT
HETATM    1 Cl   UNK     0     114.899 145.830  99.269  0.00  0.00    -0.091 Cl
HETATM    2  N   UNK     0     115.219 149.641  94.322  0.00  0.00    -0.300 N 
HETATM    3  N   UNK     0     113.546 151.853  96.392  0.00  0.00    -0.243 NA
HETATM    4  N   UNK     0     115.875 150.185  91.994  0.00  0.00    -0.251 NA
HETATM    5  C   UNK     0     115.056 148.835  95.624  0.00  0.00     0.040 A 
HETATM    6  C   UNK     0     114.754 151.077  94.016  0.00  0.00     0.086 A 
HETATM    7  C   UNK     0     114.385 149.266  96.942  0.00  0.00     0.012 A 
HETATM    8  C   UNK     0     114.009 152.062  94.938  0.00  0.00     0.114 A 
HETATM    9  C   UNK     0     113.714 150.609  97.284  0.00  0.00     0.077 A 
HETATM   10  C   UNK     0     115.911 149.096  93.070  0.00  0.00     0.120 A 
HETATM   11  C   UNK     0     115.162 151.406  92.578  0.00  0.00     0.172 A 
HETATM   12  C   UNK     0     115.704 147.376  95.468  0.00  0.00     0.049 A 
HETATM   13  C   UNK     0     114.318 148.267  98.196  0.00  0.00     0.062 A 
HETATM   14  C   UNK     0     116.534 147.696  92.919  0.00  0.00     0.072 C 
HETATM   15  C   UNK     0     115.654 146.352  96.702  0.00  0.00     0.040 A 
HETATM   16  C   UNK     0     114.956 146.801  98.075  0.00  0.00     0.018 A 
ENDROOT
BRANCH   9  17
HETATM   17  C   UNK     0     113.133 150.722  98.705  0.00  0.00     0.018 A 
HETATM   18  C   UNK     0     111.782 150.062  99.039  0.00  0.00     0.115 A 
HETATM   19  F   UNK     0     111.012 149.289  97.952  0.00  0.00    -0.209 F 
HETATM   20  C   UNK     0     111.200 150.174 100.460  0.00  0.00     0.056 A 
HETATM   21  C   UNK     0     111.970 150.947 101.548  0.00  0.00     0.007 A 
HETATM   22  C   UNK     0     113.320 151.607 101.214  0.00  0.00     0.005 A 
HETATM   23  C   UNK     0     113.902 151.495  99.792  0.00  0.00     0.030 A 
ENDBRANCH   9  17
TORSDOF 1
ENDMDL
