REMARK  4 active torsions:
REMARK  status: ('A' for Active; 'I' for Inactive)
REMARK    1  A    between atoms: O_1  and  C_15 
REMARK    2  A    between atoms: O_1  and  C_22 
REMARK    3  A    between atoms: O_2  and  C_19 
REMARK    4  A    between atoms: C_21  and  C_22 
ROOT
HETATM    1  O   UNK     0       8.415   1.247   0.000  0.00  0.00    -0.290 OA
HETATM    2  O   UNK     0      13.750   1.247   0.000  0.00  0.00     0.000 OA
HETATM    3  O   UNK     0      13.750   4.327   0.000  0.00  0.00    -0.223 OA
HETATM    4  O   UNK     0      15.083   2.017   0.000  0.00  0.00     0.000 OA
HETATM    5  N   UNK     0      11.082  -3.373   0.000  0.00  0.00    -0.254 NA
HETATM    6  N   UNK     0      13.750   2.787   0.000  0.00  0.00     0.000 N 
HETATM    7  C   UNK     0      11.082  -0.293   0.000  0.00  0.00     0.006 A 
HETATM    8  C   UNK     0       9.748  -1.063   0.000  0.00  0.00     0.060 A 
HETATM    9  C   UNK     0      12.416  -1.063   0.000  0.00  0.00     0.038 A 
HETATM   10  C   UNK     0      11.082   1.247   0.000  0.00  0.00    -0.001 A 
HETATM   11  C   UNK     0       9.748  -2.603   0.000  0.00  0.00     0.063 A 
HETATM   12  C   UNK     0      12.416  -2.603   0.000  0.00  0.00     0.061 A 
HETATM   13  C   UNK     0       8.415  -0.293   0.000  0.00  0.00     0.200 A 
HETATM   14  C   UNK     0      12.416   2.017   0.000  0.00  0.00     0.061 A 
HETATM   15  C   UNK     0       9.748   2.017   0.000  0.00  0.00     0.076 A 
HETATM   16  C   UNK     0       8.415  -3.373   0.000  0.00  0.00     0.052 C 
HETATM   17  C   UNK     0      13.750  -0.293   0.000  0.00  0.00     0.117 A 
HETATM   18  C   UNK     0      13.750  -3.373   0.000  0.00  0.00     0.052 C 
HETATM   19  C   UNK     0      12.416   3.557   0.000  0.00  0.00     0.157 A 
HETATM   20  C   UNK     0       9.748   3.557   0.000  0.00  0.00     0.054 A 
HETATM   21  C   UNK     0      11.082   4.327   0.000  0.00  0.00     0.040 A 
ENDROOT
BRANCH  13  22
HETATM   22  O   UNK     0       7.081  -1.063   0.000  0.00  0.00    -0.311 OA
BRANCH  22  23
HETATM   23  C   UNK     0       5.748  -0.293   0.000  0.00  0.00     0.151 C 
BRANCH  23  24
HETATM   24  C   UNK     0       4.414  -1.063   0.000  0.00  0.00     0.030 C 
HETATM   25  C   UNK     0       3.080  -0.293   0.000  0.00  0.00     0.003 C 
HETATM   26  C   UNK     0       4.414  -2.603   0.000  0.00  0.00     0.003 C 
ENDBRANCH  23  24
ENDBRANCH  22  23
ENDBRANCH  13  22
BRANCH  17  27
HETATM   27  O   UNK     0      15.083  -1.063   0.000  0.00  0.00    -0.326 OA
HETATM   28  C   UNK     0      16.417  -0.293   0.000  0.00  0.00     0.181 C 
ENDBRANCH  17  27
TORSDOF 4
