MODEL 1
REMARK VINA RESULT:      -8.2      0.000      0.000
REMARK  4 active torsions:
REMARK  status: ('A' for Active; 'I' for Inactive)
REMARK    1  A    between atoms: O_1  and  C_15 
REMARK    2  A    between atoms: O_1  and  C_22 
REMARK    3  A    between atoms: O_2  and  C_19 
REMARK    4  A    between atoms: C_21  and  C_22 
ROOT
HETATM    1  O   UNK     0     126.068 129.113 120.757  0.00  0.00    -0.290 OA
HETATM    2  O   UNK     0     125.564 128.807 115.454  0.00  0.00     0.000 OA
HETATM    3  O   UNK     0     126.040 131.842 115.234  0.00  0.00    -0.223 OA
HETATM    4  O   UNK     0     125.557 129.489 114.074  0.00  0.00     0.000 OA
HETATM    5  N   UNK     0     125.103 124.407 118.437  0.00  0.00    -0.254 NA
HETATM    6  N   UNK     0     125.802 130.324 115.344  0.00  0.00     0.000 N 
HETATM    7  C   UNK     0     125.579 127.442 118.216  0.00  0.00     0.006 A 
HETATM    8  C   UNK     0     125.586 126.760 119.597  0.00  0.00     0.060 A 
HETATM    9  C   UNK     0     125.334 126.607 116.946  0.00  0.00     0.038 A 
HETATM   10  C   UNK     0     125.816 128.960 118.106  0.00  0.00    -0.001 A 
HETATM   11  C   UNK     0     125.348 125.243 119.708  0.00  0.00     0.063 A 
HETATM   12  C   UNK     0     125.096 125.089 117.056  0.00  0.00     0.061 A 
HETATM   13  C   UNK     0     125.830 127.595 120.867  0.00  0.00     0.200 A 
HETATM   14  C   UNK     0     125.809 129.642 116.725  0.00  0.00     0.061 A 
HETATM   15  C   UNK     0     126.061 129.795 119.377  0.00  0.00     0.076 A 
HETATM   16  C   UNK     0     125.355 124.560 121.088  0.00  0.00     0.052 C 
HETATM   17  C   UNK     0     125.327 127.289 115.565  0.00  0.00     0.117 A 
HETATM   18  C   UNK     0     124.851 124.254 115.785  0.00  0.00     0.052 C 
HETATM   19  C   UNK     0     126.047 131.160 116.615  0.00  0.00     0.157 A 
HETATM   20  C   UNK     0     126.299 131.313 119.267  0.00  0.00     0.054 A 
HETATM   21  C   UNK     0     126.292 131.995 117.886  0.00  0.00     0.040 A 
ENDROOT
BRANCH  13  22
HETATM   22  O   UNK     0     125.838 126.913 122.248  0.00  0.00    -0.311 OA
BRANCH  22  23
HETATM   23  C   UNK     0     125.215 127.627 123.462  0.00  0.00     0.151 C 
BRANCH  23  24
HETATM   24  C   UNK     0     124.436 126.816 124.515  0.00  0.00     0.030 C 
HETATM   25  C   UNK     0     124.820 125.352 124.799  0.00  0.00     0.003 C 
HETATM   26  C   UNK     0     123.273 127.470 125.284  0.00  0.00     0.003 C 
ENDBRANCH  23  24
ENDBRANCH  22  23
ENDBRANCH  13  22
BRANCH  17  27
HETATM   27  O   UNK     0     125.082 126.454 114.295  0.00  0.00    -0.326 OA
HETATM   28  C   UNK     0     123.827 126.705 113.438  0.00  0.00     0.181 C 
ENDBRANCH  17  27
TORSDOF 4
ENDMDL
MODEL 2
REMARK VINA RESULT:      -7.9      2.124      6.225
REMARK  4 active torsions:
REMARK  status: ('A' for Active; 'I' for Inactive)
REMARK    1  A    between atoms: O_1  and  C_15 
REMARK    2  A    between atoms: O_1  and  C_22 
REMARK    3  A    between atoms: O_2  and  C_19 
REMARK    4  A    between atoms: C_21  and  C_22 
ROOT
HETATM    1  O   UNK     0     125.942 130.423 120.061  0.00  0.00    -0.290 OA
HETATM    2  O   UNK     0     125.058 125.176 119.681  0.00  0.00     0.000 OA
HETATM    3  O   UNK     0     125.104 124.945 122.752  0.00  0.00    -0.223 OA
HETATM    4  O   UNK     0     124.848 123.807 120.353  0.00  0.00     0.000 OA
HETATM    5  N   UNK     0     125.430 128.146 115.264  0.00  0.00    -0.254 NA
HETATM    6  N   UNK     0     125.081 125.061 121.216  0.00  0.00     0.000 N 
HETATM    7  C   UNK     0     125.477 127.915 118.335  0.00  0.00     0.006 A 
HETATM    8  C   UNK     0     125.686 129.285 117.663  0.00  0.00     0.060 A 
HETATM    9  C   UNK     0     125.244 126.661 117.472  0.00  0.00     0.038 A 
HETATM   10  C   UNK     0     125.500 127.800 119.871  0.00  0.00    -0.001 A 
HETATM   11  C   UNK     0     125.663 129.400 116.127  0.00  0.00     0.063 A 
HETATM   12  C   UNK     0     125.220 126.776 115.937  0.00  0.00     0.061 A 
HETATM   13  C   UNK     0     125.919 130.539 118.526  0.00  0.00     0.200 A 
HETATM   14  C   UNK     0     125.291 126.430 120.544  0.00  0.00     0.061 A 
HETATM   15  C   UNK     0     125.733 129.055 120.734  0.00  0.00     0.076 A 
HETATM   16  C   UNK     0     125.872 130.769 115.455  0.00  0.00     0.052 C 
HETATM   17  C   UNK     0     125.034 125.291 118.145  0.00  0.00     0.117 A 
HETATM   18  C   UNK     0     124.988 125.522 115.074  0.00  0.00     0.052 C 
HETATM   19  C   UNK     0     125.314 126.315 122.079  0.00  0.00     0.157 A 
HETATM   20  C   UNK     0     125.756 128.939 122.269  0.00  0.00     0.054 A 
HETATM   21  C   UNK     0     125.547 127.570 122.942  0.00  0.00     0.040 A 
ENDROOT
BRANCH  13  22
HETATM   22  O   UNK     0     126.128 131.908 117.853  0.00  0.00    -0.311 OA
BRANCH  22  23
HETATM   23  C   UNK     0     127.351 132.768 118.221  0.00  0.00     0.151 C 
BRANCH  23  24
HETATM   24  C   UNK     0     128.704 132.519 117.528  0.00  0.00     0.030 C 
HETATM   25  C   UNK     0     129.361 131.128 117.597  0.00  0.00     0.003 C 
HETATM   26  C   UNK     0     129.400 133.662 116.765  0.00  0.00     0.003 C 
ENDBRANCH  23  24
ENDBRANCH  22  23
ENDBRANCH  13  22
BRANCH  17  27
HETATM   27  O   UNK     0     124.802 124.038 117.282  0.00  0.00    -0.326 OA
HETATM   28  C   UNK     0     123.437 123.324 117.313  0.00  0.00     0.181 C 
ENDBRANCH  17  27
TORSDOF 4
ENDMDL
MODEL 3
REMARK VINA RESULT:      -7.8      2.383      6.590
REMARK  4 active torsions:
REMARK  status: ('A' for Active; 'I' for Inactive)
REMARK    1  A    between atoms: O_1  and  C_15 
REMARK    2  A    between atoms: O_1  and  C_22 
REMARK    3  A    between atoms: O_2  and  C_19 
REMARK    4  A    between atoms: C_21  and  C_22 
ROOT
HETATM    1  O   UNK     0     125.958 130.970 120.499  0.00  0.00    -0.290 OA
HETATM    2  O   UNK     0     125.037 125.837 121.621  0.00  0.00     0.000 OA
HETATM    3  O   UNK     0     125.080 126.487 124.631  0.00  0.00    -0.223 OA
HETATM    4  O   UNK     0     124.818 124.716 122.654  0.00  0.00     0.000 OA
HETATM    5  N   UNK     0     125.433 127.429 116.545  0.00  0.00    -0.254 NA
HETATM    6  N   UNK     0     125.058 126.162 123.126  0.00  0.00     0.000 N 
HETATM    7  C   UNK     0     125.476 128.079 119.555  0.00  0.00     0.006 A 
HETATM    8  C   UNK     0     125.696 129.200 118.522  0.00  0.00     0.060 A 
HETATM    9  C   UNK     0     125.235 126.633 119.083  0.00  0.00     0.038 A 
HETATM   10  C   UNK     0     125.498 128.404 121.060  0.00  0.00    -0.001 A 
HETATM   11  C   UNK     0     125.674 128.875 117.017  0.00  0.00     0.063 A 
HETATM   12  C   UNK     0     125.213 126.308 117.578  0.00  0.00     0.061 A 
HETATM   13  C   UNK     0     125.936 130.645 118.994  0.00  0.00     0.200 A 
HETATM   14  C   UNK     0     125.278 127.283 122.093  0.00  0.00     0.061 A 
HETATM   15  C   UNK     0     125.739 129.850 121.532  0.00  0.00     0.076 A 
HETATM   16  C   UNK     0     125.893 129.995 115.984  0.00  0.00     0.052 C 
HETATM   17  C   UNK     0     125.015 125.512 120.116  0.00  0.00     0.117 A 
HETATM   18  C   UNK     0     124.972 124.862 117.105  0.00  0.00     0.052 C 
HETATM   19  C   UNK     0     125.300 127.608 123.598  0.00  0.00     0.157 A 
HETATM   20  C   UNK     0     125.760 130.175 123.037  0.00  0.00     0.054 A 
HETATM   21  C   UNK     0     125.541 129.054 124.070  0.00  0.00     0.040 A 
ENDROOT
BRANCH  13  22
HETATM   22  O   UNK     0     126.156 131.767 117.961  0.00  0.00    -0.311 OA
BRANCH  22  23
HETATM   23  C   UNK     0     127.217 132.852 118.217  0.00  0.00     0.151 C 
BRANCH  23  24
HETATM   24  C   UNK     0     128.619 132.722 117.593  0.00  0.00     0.030 C 
HETATM   25  C   UNK     0     129.420 133.985 117.228  0.00  0.00     0.003 C 
HETATM   26  C   UNK     0     129.219 131.328 117.333  0.00  0.00     0.003 C 
ENDBRANCH  23  24
ENDBRANCH  22  23
ENDBRANCH  13  22
BRANCH  17  27
HETATM   27  O   UNK     0     124.775 124.066 119.643  0.00  0.00    -0.326 OA
HETATM   28  C   UNK     0     123.406 123.399 119.874  0.00  0.00     0.181 C 
ENDBRANCH  17  27
TORSDOF 4
ENDMDL
MODEL 4
REMARK VINA RESULT:      -7.7      2.547      7.137
REMARK  4 active torsions:
REMARK  status: ('A' for Active; 'I' for Inactive)
REMARK    1  A    between atoms: O_1  and  C_15 
REMARK    2  A    between atoms: O_1  and  C_22 
REMARK    3  A    between atoms: O_2  and  C_19 
REMARK    4  A    between atoms: C_21  and  C_22 
ROOT
HETATM    1  O   UNK     0     125.924 128.455 119.671  0.00  0.00    -0.290 OA
HETATM    2  O   UNK     0     124.042 125.264 123.511  0.00  0.00     0.000 OA
HETATM    3  O   UNK     0     124.906 127.316 125.639  0.00  0.00    -0.223 OA
HETATM    4  O   UNK     0     123.788 124.980 125.002  0.00  0.00     0.000 OA
HETATM    5  N   UNK     0     123.688 123.782 118.398  0.00  0.00    -0.254 NA
HETATM    6  N   UNK     0     124.474 126.290 124.575  0.00  0.00     0.000 N 
HETATM    7  C   UNK     0     124.551 125.834 120.527  0.00  0.00     0.006 A 
HETATM    8  C   UNK     0     124.806 126.118 119.035  0.00  0.00     0.060 A 
HETATM    9  C   UNK     0     123.865 124.523 120.955  0.00  0.00     0.038 A 
HETATM   10  C   UNK     0     124.983 126.860 121.591  0.00  0.00    -0.001 A 
HETATM   11  C   UNK     0     124.374 125.093 117.970  0.00  0.00     0.063 A 
HETATM   12  C   UNK     0     123.433 123.497 119.890  0.00  0.00     0.061 A 
HETATM   13  C   UNK     0     125.492 127.429 118.607  0.00  0.00     0.200 A 
HETATM   14  C   UNK     0     124.729 126.575 123.083  0.00  0.00     0.061 A 
HETATM   15  C   UNK     0     125.670 128.170 121.163  0.00  0.00     0.076 A 
HETATM   16  C   UNK     0     124.628 125.377 116.479  0.00  0.00     0.052 C 
HETATM   17  C   UNK     0     123.610 124.238 122.447  0.00  0.00     0.117 A 
HETATM   18  C   UNK     0     122.747 122.186 120.318  0.00  0.00     0.052 C 
HETATM   19  C   UNK     0     125.160 127.601 124.147  0.00  0.00     0.157 A 
HETATM   20  C   UNK     0     126.101 129.196 122.227  0.00  0.00     0.054 A 
HETATM   21  C   UNK     0     125.847 128.912 123.719  0.00  0.00     0.040 A 
ENDROOT
BRANCH  13  22
HETATM   22  O   UNK     0     125.746 127.713 117.115  0.00  0.00    -0.311 OA
BRANCH  22  23
HETATM   23  C   UNK     0     125.751 129.164 116.598  0.00  0.00     0.151 C 
BRANCH  23  24
HETATM   24  C   UNK     0     124.646 129.642 115.637  0.00  0.00     0.030 C 
HETATM   25  C   UNK     0     123.861 128.618 114.796  0.00  0.00     0.003 C 
HETATM   26  C   UNK     0     124.327 131.144 115.518  0.00  0.00     0.003 C 
ENDBRANCH  23  24
ENDBRANCH  22  23
ENDBRANCH  13  22
BRANCH  17  27
HETATM   27  O   UNK     0     122.924 122.928 122.874  0.00  0.00    -0.326 OA
HETATM   28  C   UNK     0     121.562 122.971 123.592  0.00  0.00     0.181 C 
ENDBRANCH  17  27
TORSDOF 4
ENDMDL
MODEL 5
REMARK VINA RESULT:      -7.6      3.189      6.345
REMARK  4 active torsions:
REMARK  status: ('A' for Active; 'I' for Inactive)
REMARK    1  A    between atoms: O_1  and  C_15 
REMARK    2  A    between atoms: O_1  and  C_22 
REMARK    3  A    between atoms: O_2  and  C_19 
REMARK    4  A    between atoms: C_21  and  C_22 
ROOT
HETATM    1  O   UNK     0     123.320 124.766 124.453  0.00  0.00    -0.290 OA
HETATM    2  O   UNK     0     124.406 124.341 119.247  0.00  0.00     0.000 OA
HETATM    3  O   UNK     0     122.655 121.812 119.088  0.00  0.00    -0.223 OA
HETATM    4  O   UNK     0     124.239 123.603 117.906  0.00  0.00     0.000 OA
HETATM    5  N   UNK     0     126.489 128.347 122.088  0.00  0.00    -0.254 NA
HETATM    6  N   UNK     0     123.530 123.077 119.167  0.00  0.00     0.000 N 
HETATM    7  C   UNK     0     124.738 125.818 121.930  0.00  0.00     0.006 A 
HETATM    8  C   UNK     0     124.905 126.557 123.271  0.00  0.00     0.060 A 
HETATM    9  C   UNK     0     125.447 126.344 120.668  0.00  0.00     0.038 A 
HETATM   10  C   UNK     0     123.863 124.554 121.850  0.00  0.00    -0.001 A 
HETATM   11  C   UNK     0     125.780 127.821 123.351  0.00  0.00     0.063 A 
HETATM   12  C   UNK     0     126.323 127.609 120.747  0.00  0.00     0.061 A 
HETATM   13  C   UNK     0     124.196 126.030 124.532  0.00  0.00     0.200 A 
HETATM   14  C   UNK     0     123.697 123.815 120.509  0.00  0.00     0.061 A 
HETATM   15  C   UNK     0     123.154 124.027 123.112  0.00  0.00     0.076 A 
HETATM   16  C   UNK     0     125.946 128.559 124.691  0.00  0.00     0.052 C 
HETATM   17  C   UNK     0     125.281 125.606 119.326  0.00  0.00     0.117 A 
HETATM   18  C   UNK     0     127.032 128.135 119.485  0.00  0.00     0.052 C 
HETATM   19  C   UNK     0     122.821 122.551 120.429  0.00  0.00     0.157 A 
HETATM   20  C   UNK     0     122.279 122.763 123.033  0.00  0.00     0.054 A 
HETATM   21  C   UNK     0     122.112 122.024 121.692  0.00  0.00     0.040 A 
ENDROOT
BRANCH  13  22
HETATM   22  O   UNK     0     124.362 126.769 125.874  0.00  0.00    -0.311 OA
BRANCH  22  23
HETATM   23  C   UNK     0     123.155 126.936 126.815  0.00  0.00     0.151 C 
BRANCH  23  24
HETATM   24  C   UNK     0     123.019 126.038 128.059  0.00  0.00     0.030 C 
HETATM   25  C   UNK     0     123.530 124.586 128.021  0.00  0.00     0.003 C 
HETATM   26  C   UNK     0     122.372 126.593 129.342  0.00  0.00     0.003 C 
ENDBRANCH  23  24
ENDBRANCH  22  23
ENDBRANCH  13  22
BRANCH  17  27
HETATM   27  O   UNK     0     125.990 126.132 118.065  0.00  0.00    -0.326 OA
HETATM   28  C   UNK     0     125.160 126.658 116.878  0.00  0.00     0.181 C 
ENDBRANCH  17  27
TORSDOF 4
ENDMDL
MODEL 6
REMARK VINA RESULT:      -7.6      2.257      6.274
REMARK  4 active torsions:
REMARK  status: ('A' for Active; 'I' for Inactive)
REMARK    1  A    between atoms: O_1  and  C_15 
REMARK    2  A    between atoms: O_1  and  C_22 
REMARK    3  A    between atoms: O_2  and  C_19 
REMARK    4  A    between atoms: C_21  and  C_22 
ROOT
HETATM    1  O   UNK     0     125.410 124.425 118.347  0.00  0.00    -0.290 OA
HETATM    2  O   UNK     0     125.490 129.537 119.872  0.00  0.00     0.000 OA
HETATM    3  O   UNK     0     125.612 128.656 122.820  0.00  0.00    -0.223 OA
HETATM    4  O   UNK     0     125.541 130.594 120.990  0.00  0.00     0.000 OA
HETATM    5  N   UNK     0     125.268 128.302 114.686  0.00  0.00    -0.254 NA
HETATM    6  N   UNK     0     125.551 129.096 121.346  0.00  0.00     0.000 N 
HETATM    7  C   UNK     0     125.389 127.421 117.635  0.00  0.00     0.006 A 
HETATM    8  C   UNK     0     125.339 126.363 116.517  0.00  0.00     0.060 A 
HETATM    9  C   UNK     0     125.379 128.919 117.279  0.00  0.00     0.038 A 
HETATM   10  C   UNK     0     125.450 126.980 119.109  0.00  0.00    -0.001 A 
HETATM   11  C   UNK     0     125.278 126.803 115.042  0.00  0.00     0.063 A 
HETATM   12  C   UNK     0     125.319 129.360 115.804  0.00  0.00     0.061 A 
HETATM   13  C   UNK     0     125.349 124.865 116.873  0.00  0.00     0.200 A 
HETATM   14  C   UNK     0     125.501 128.038 120.228  0.00  0.00     0.061 A 
HETATM   15  C   UNK     0     125.460 125.482 119.465  0.00  0.00     0.076 A 
HETATM   16  C   UNK     0     125.228 125.746 113.924  0.00  0.00     0.052 C 
HETATM   17  C   UNK     0     125.430 129.977 118.397  0.00  0.00     0.117 A 
HETATM   18  C   UNK     0     125.309 130.858 115.448  0.00  0.00     0.052 C 
HETATM   19  C   UNK     0     125.561 127.598 121.702  0.00  0.00     0.157 A 
HETATM   20  C   UNK     0     125.521 125.041 120.940  0.00  0.00     0.054 A 
HETATM   21  C   UNK     0     125.571 126.099 122.058  0.00  0.00     0.040 A 
ENDROOT
BRANCH  13  22
HETATM   22  O   UNK     0     125.299 123.807 115.755  0.00  0.00    -0.311 OA
BRANCH  22  23
HETATM   23  C   UNK     0     124.215 122.714 115.778  0.00  0.00     0.151 C 
BRANCH  23  24
HETATM   24  C   UNK     0     122.794 123.049 116.267  0.00  0.00     0.030 C 
HETATM   25  C   UNK     0     122.208 122.321 117.491  0.00  0.00     0.003 C 
HETATM   26  C   UNK     0     121.957 124.113 115.532  0.00  0.00     0.003 C 
ENDBRANCH  23  24
ENDBRANCH  22  23
ENDBRANCH  13  22
BRANCH  17  27
HETATM   27  O   UNK     0     125.420 131.475 118.041  0.00  0.00    -0.326 OA
HETATM   28  C   UNK     0     126.658 132.344 118.332  0.00  0.00     0.181 C 
ENDBRANCH  17  27
TORSDOF 4
ENDMDL
MODEL 7
REMARK VINA RESULT:      -7.3     42.882     48.194
REMARK  4 active torsions:
REMARK  status: ('A' for Active; 'I' for Inactive)
REMARK    1  A    between atoms: O_1  and  C_15 
REMARK    2  A    between atoms: O_1  and  C_22 
REMARK    3  A    between atoms: O_2  and  C_19 
REMARK    4  A    between atoms: C_21  and  C_22 
ROOT
HETATM    1  O   UNK     0     133.447  96.456 150.672  0.00  0.00    -0.290 OA
HETATM    2  O   UNK     0     133.529  94.047 155.431  0.00  0.00     0.000 OA
HETATM    3  O   UNK     0     133.626  91.301 154.038  0.00  0.00    -0.223 OA
HETATM    4  O   UNK     0     133.574  92.758 156.272  0.00  0.00     0.000 OA
HETATM    5  N   UNK     0     133.342  99.370 155.139  0.00  0.00    -0.254 NA
HETATM    6  N   UNK     0     133.577  92.674 154.735  0.00  0.00     0.000 N 
HETATM    7  C   UNK     0     133.439  96.625 153.747  0.00  0.00     0.006 A 
HETATM    8  C   UNK     0     133.395  97.914 152.905  0.00  0.00     0.060 A 
HETATM    9  C   UNK     0     133.436  96.708 155.285  0.00  0.00     0.038 A 
HETATM   10  C   UNK     0     133.488  95.252 153.051  0.00  0.00    -0.001 A 
HETATM   11  C   UNK     0     133.346  99.286 153.601  0.00  0.00     0.063 A 
HETATM   12  C   UNK     0     133.387  98.081 155.981  0.00  0.00     0.061 A 
HETATM   13  C   UNK     0     133.399  97.829 151.368  0.00  0.00     0.200 A 
HETATM   14  C   UNK     0     133.533  93.963 153.893  0.00  0.00     0.061 A 
HETATM   15  C   UNK     0     133.492  95.168 151.513  0.00  0.00     0.076 A 
HETATM   16  C   UNK     0     133.301 100.575 152.760  0.00  0.00     0.052 C 
HETATM   17  C   UNK     0     133.480  95.419 156.127  0.00  0.00     0.117 A 
HETATM   18  C   UNK     0     133.383  98.165 157.519  0.00  0.00     0.052 C 
HETATM   19  C   UNK     0     133.581  92.590 153.197  0.00  0.00     0.157 A 
HETATM   20  C   UNK     0     133.541  93.795 150.817  0.00  0.00     0.054 A 
HETATM   21  C   UNK     0     133.585  92.506 151.659  0.00  0.00     0.040 A 
ENDROOT
BRANCH  13  22
HETATM   22  O   UNK     0     133.354  99.118 150.526  0.00  0.00    -0.311 OA
BRANCH  22  23
HETATM   23  C   UNK     0     134.204  99.232 149.247  0.00  0.00     0.151 C 
BRANCH  23  24
HETATM   24  C   UNK     0     135.551  99.979 149.283  0.00  0.00     0.030 C 
HETATM   25  C   UNK     0     136.867  99.204 149.082  0.00  0.00     0.003 C 
HETATM   26  C   UNK     0     135.582 101.501 149.519  0.00  0.00     0.003 C 
ENDBRANCH  23  24
ENDBRANCH  22  23
ENDBRANCH  13  22
BRANCH  17  27
HETATM   27  O   UNK     0     133.476  95.504 157.664  0.00  0.00    -0.326 OA
HETATM   28  C   UNK     0     134.731  95.099 158.460  0.00  0.00     0.181 C 
ENDBRANCH  17  27
TORSDOF 4
ENDMDL
MODEL 8
REMARK VINA RESULT:      -7.2     44.467     48.650
REMARK  4 active torsions:
REMARK  status: ('A' for Active; 'I' for Inactive)
REMARK    1  A    between atoms: O_1  and  C_15 
REMARK    2  A    between atoms: O_1  and  C_22 
REMARK    3  A    between atoms: O_2  and  C_19 
REMARK    4  A    between atoms: C_21  and  C_22 
ROOT
HETATM    1  O   UNK     0     116.101 173.279 107.863  0.00  0.00    -0.290 OA
HETATM    2  O   UNK     0     111.631 171.100 109.794  0.00  0.00     0.000 OA
HETATM    3  O   UNK     0     112.544 168.336 108.787  0.00  0.00    -0.223 OA
HETATM    4  O   UNK     0     110.743 169.864 110.025  0.00  0.00     0.000 OA
HETATM    5  N   UNK     0     112.497 176.336 110.338  0.00  0.00    -0.254 NA
HETATM    6  N   UNK     0     112.088 169.718 109.290  0.00  0.00     0.000 N 
HETATM    7  C   UNK     0     113.410 173.572 109.331  0.00  0.00     0.006 A 
HETATM    8  C   UNK     0     114.300 174.808 109.100  0.00  0.00     0.060 A 
HETATM    9  C   UNK     0     112.064 173.718 110.066  0.00  0.00     0.038 A 
HETATM   10  C   UNK     0     113.867 172.190 108.828  0.00  0.00    -0.001 A 
HETATM   11  C   UNK     0     113.843 176.190 109.603  0.00  0.00     0.063 A 
HETATM   12  C   UNK     0     111.608 175.100 110.569  0.00  0.00     0.061 A 
HETATM   13  C   UNK     0     115.645 174.661 108.366  0.00  0.00     0.200 A 
HETATM   14  C   UNK     0     112.977 170.954 109.059  0.00  0.00     0.061 A 
HETATM   15  C   UNK     0     115.213 172.044 108.093  0.00  0.00     0.076 A 
HETATM   16  C   UNK     0     114.732 177.425 109.373  0.00  0.00     0.052 C 
HETATM   17  C   UNK     0     111.175 172.482 110.297  0.00  0.00     0.117 A 
HETATM   18  C   UNK     0     110.262 175.246 111.304  0.00  0.00     0.052 C 
HETATM   19  C   UNK     0     113.434 169.572 108.556  0.00  0.00     0.157 A 
HETATM   20  C   UNK     0     115.669 170.662 107.590  0.00  0.00     0.054 A 
HETATM   21  C   UNK     0     114.780 169.426 107.821  0.00  0.00     0.040 A 
ENDROOT
BRANCH  13  22
HETATM   22  O   UNK     0     116.534 175.897 108.135  0.00  0.00    -0.311 OA
BRANCH  22  23
HETATM   23  C   UNK     0     116.956 176.285 106.706  0.00  0.00     0.151 C 
BRANCH  23  24
HETATM   24  C   UNK     0     117.717 177.601 106.459  0.00  0.00     0.030 C 
HETATM   25  C   UNK     0     119.148 177.569 105.889  0.00  0.00     0.003 C 
HETATM   26  C   UNK     0     117.048 178.950 106.780  0.00  0.00     0.003 C 
ENDBRANCH  23  24
ENDBRANCH  22  23
ENDBRANCH  13  22
BRANCH  17  27
HETATM   27  O   UNK     0     109.830 172.628 111.031  0.00  0.00    -0.326 OA
HETATM   28  C   UNK     0     108.509 172.408 110.270  0.00  0.00     0.181 C 
ENDBRANCH  17  27
TORSDOF 4
ENDMDL
MODEL 9
REMARK VINA RESULT:      -7.2     41.117     44.110
REMARK  4 active torsions:
REMARK  status: ('A' for Active; 'I' for Inactive)
REMARK    1  A    between atoms: O_1  and  C_15 
REMARK    2  A    between atoms: O_1  and  C_22 
REMARK    3  A    between atoms: O_2  and  C_19 
REMARK    4  A    between atoms: C_21  and  C_22 
ROOT
HETATM    1  O   UNK     0     134.859 101.186 150.368  0.00  0.00    -0.290 OA
HETATM    2  O   UNK     0     138.793  98.643 147.816  0.00  0.00     0.000 OA
HETATM    3  O   UNK     0     139.815 101.331 146.712  0.00  0.00    -0.223 OA
HETATM    4  O   UNK     0     140.032  98.680 146.902  0.00  0.00     0.000 OA
HETATM    5  N   UNK     0     135.294  95.883 150.747  0.00  0.00    -0.254 NA
HETATM    6  N   UNK     0     139.304  99.987 147.264  0.00  0.00     0.000 N 
HETATM    7  C   UNK     0     136.315  98.571 149.644  0.00  0.00     0.006 A 
HETATM    8  C   UNK     0     135.076  98.535 150.558  0.00  0.00     0.060 A 
HETATM    9  C   UNK     0     137.043  97.263 149.282  0.00  0.00     0.038 A 
HETATM   10  C   UNK     0     136.826  99.915 149.092  0.00  0.00    -0.001 A 
HETATM   11  C   UNK     0     134.565  97.191 151.110  0.00  0.00     0.063 A 
HETATM   12  C   UNK     0     136.533  95.919 149.833  0.00  0.00     0.061 A 
HETATM   13  C   UNK     0     134.348  99.842 150.920  0.00  0.00     0.200 A 
HETATM   14  C   UNK     0     138.065  99.951 148.178  0.00  0.00     0.061 A 
HETATM   15  C   UNK     0     136.097 101.223 149.454  0.00  0.00     0.076 A 
HETATM   16  C   UNK     0     133.327  97.154 152.023  0.00  0.00     0.052 C 
HETATM   17  C   UNK     0     138.283  97.299 148.367  0.00  0.00     0.117 A 
HETATM   18  C   UNK     0     137.261  94.611 149.471  0.00  0.00     0.052 C 
HETATM   19  C   UNK     0     138.576 101.295 147.626  0.00  0.00     0.157 A 
HETATM   20  C   UNK     0     136.608 102.567 148.903  0.00  0.00     0.054 A 
HETATM   21  C   UNK     0     137.847 102.603 147.989  0.00  0.00     0.040 A 
ENDROOT
BRANCH  13  22
HETATM   22  O   UNK     0     133.109  99.806 151.834  0.00  0.00    -0.311 OA
BRANCH  22  23
HETATM   23  C   UNK     0     133.076 100.652 153.120  0.00  0.00     0.151 C 
BRANCH  23  24
HETATM   24  C   UNK     0     132.683 100.001 154.459  0.00  0.00     0.030 C 
HETATM   25  C   UNK     0     133.592  98.932 155.094  0.00  0.00     0.003 C 
HETATM   26  C   UNK     0     131.379 100.420 155.165  0.00  0.00     0.003 C 
ENDBRANCH  23  24
ENDBRANCH  22  23
ENDBRANCH  13  22
BRANCH  17  27
HETATM   27  O   UNK     0     139.010  95.992 148.006  0.00  0.00    -0.326 OA
HETATM   28  C   UNK     0     140.440  95.738 148.521  0.00  0.00     0.181 C 
ENDBRANCH  17  27
TORSDOF 4
ENDMDL
MODEL 10
REMARK VINA RESULT:      -7.1     45.444     49.243
REMARK  4 active torsions:
REMARK  status: ('A' for Active; 'I' for Inactive)
REMARK    1  A    between atoms: O_1  and  C_15 
REMARK    2  A    between atoms: O_1  and  C_22 
REMARK    3  A    between atoms: O_2  and  C_19 
REMARK    4  A    between atoms: C_21  and  C_22 
ROOT
HETATM    1  O   UNK     0     112.974 172.340 109.195  0.00  0.00    -0.290 OA
HETATM    2  O   UNK     0     117.611 174.386 107.531  0.00  0.00     0.000 OA
HETATM    3  O   UNK     0     118.669 171.545 106.987  0.00  0.00    -0.223 OA
HETATM    4  O   UNK     0     119.034 174.187 106.979  0.00  0.00     0.000 OA
HETATM    5  N   UNK     0     113.704 177.624 109.179  0.00  0.00    -0.254 NA
HETATM    6  N   UNK     0     118.140 172.966 107.259  0.00  0.00     0.000 N 
HETATM    7  C   UNK     0     114.763 174.783 108.635  0.00  0.00     0.006 A 
HETATM    8  C   UNK     0     113.339 174.982 109.187  0.00  0.00     0.060 A 
HETATM    9  C   UNK     0     115.658 176.005 108.355  0.00  0.00     0.038 A 
HETATM   10  C   UNK     0     115.292 173.363 108.363  0.00  0.00    -0.001 A 
HETATM   11  C   UNK     0     112.809 176.402 109.459  0.00  0.00     0.063 A 
HETATM   12  C   UNK     0     115.129 177.426 108.626  0.00  0.00     0.061 A 
HETATM   13  C   UNK     0     112.445 173.760 109.467  0.00  0.00     0.200 A 
HETATM   14  C   UNK     0     116.716 173.164 107.811  0.00  0.00     0.061 A 
HETATM   15  C   UNK     0     114.397 172.141 108.643  0.00  0.00     0.076 A 
HETATM   16  C   UNK     0     111.386 176.601 110.011  0.00  0.00     0.052 C 
HETATM   17  C   UNK     0     117.082 175.806 107.803  0.00  0.00     0.117 A 
HETATM   18  C   UNK     0     116.023 178.647 108.346  0.00  0.00     0.052 C 
HETATM   19  C   UNK     0     117.245 171.744 107.539  0.00  0.00     0.157 A 
HETATM   20  C   UNK     0     114.926 170.720 108.371  0.00  0.00     0.054 A 
HETATM   21  C   UNK     0     116.350 170.522 107.819  0.00  0.00     0.040 A 
ENDROOT
BRANCH  13  22
HETATM   22  O   UNK     0     111.020 173.959 110.019  0.00  0.00    -0.311 OA
BRANCH  22  23
HETATM   23  C   UNK     0     109.827 173.268 109.336  0.00  0.00     0.151 C 
BRANCH  23  24
HETATM   24  C   UNK     0     108.420 173.887 109.432  0.00  0.00     0.030 C 
HETATM   25  C   UNK     0     107.955 174.544 110.745  0.00  0.00     0.003 C 
HETATM   26  C   UNK     0     107.478 173.850 108.214  0.00  0.00     0.003 C 
ENDBRANCH  23  24
ENDBRANCH  22  23
ENDBRANCH  13  22
BRANCH  17  27
HETATM   27  O   UNK     0     117.976 177.028 107.523  0.00  0.00    -0.326 OA
HETATM   28  C   UNK     0     118.395 177.361 106.078  0.00  0.00     0.181 C 
ENDBRANCH  17  27
TORSDOF 4
ENDMDL
