MODEL 1
REMARK VINA RESULT:      -6.6      0.000      0.000
REMARK  2 active torsions:
REMARK  status: ('A' for Active; 'I' for Inactive)
REMARK    1  A    between atoms: N_6  and  C_14 
REMARK    2  A    between atoms: C_9  and  C_10 
ROOT
HETATM    1  O   UNK     0     151.658 116.106 156.341  0.00  0.00    -0.168 OA
HETATM    2  N   UNK     0     152.419 117.393 154.205  0.00  0.00    -0.223 NA
HETATM    3  N   UNK     0     152.707 114.216 152.866  0.00  0.00    -0.241 NA
HETATM    4  C   UNK     0     153.220 116.658 151.652  0.00  0.00     0.014 A 
HETATM    5  C   UNK     0     152.902 117.670 152.769  0.00  0.00     0.059 A 
HETATM    6  C   UNK     0     153.133 115.122 151.695  0.00  0.00     0.071 A 
HETATM    7  C   UNK     0     153.717 117.155 150.209  0.00  0.00     0.075 A 
HETATM    8  C   UNK     0     153.059 119.247 152.521  0.00  0.00     0.052 A 
HETATM    9  C   UNK     0     152.262 114.624 154.283  0.00  0.00     0.146 A 
HETATM   10  C   UNK     0     153.884 118.724 149.927  0.00  0.00     0.087 A 
HETATM   11  C   UNK     0     152.134 116.038 154.879  0.00  0.00     0.232 A 
HETATM   12  C   UNK     0     153.553 119.777 151.090  0.00  0.00     0.052 A 
ENDROOT
BRANCH   6  13
HETATM   13  C   UNK     0     153.525 114.394 150.396  0.00  0.00    -0.027 A 
HETATM   14  C   UNK     0     152.440 114.011 149.371  0.00  0.00     0.024 A 
HETATM   15  C   UNK     0     152.832 113.282 148.071  0.00  0.00     0.004 A 
HETATM   16  C   UNK     0     154.307 112.938 147.797  0.00  0.00     0.001 A 
HETATM   17  C   UNK     0     155.391 113.321 148.821  0.00  0.00     0.004 A 
HETATM   18  C   UNK     0     155.000 114.049 150.120  0.00  0.00     0.024 A 
ENDBRANCH   6  13
BRANCH  10  19
HETATM   19  N   UNK     0     154.360 119.217 148.547  0.00  0.00    -0.122 N 
HETATM   20  O   UNK     0     153.783 118.590 147.265  0.00  0.00    -0.532 OA
HETATM   21  O   UNK     0     155.412 120.337 148.451  0.00  0.00    -0.532 OA
ENDBRANCH  10  19
TORSDOF 2
ENDMDL
MODEL 2
REMARK VINA RESULT:      -6.3    102.884    105.221
REMARK  2 active torsions:
REMARK  status: ('A' for Active; 'I' for Inactive)
REMARK    1  A    between atoms: N_6  and  C_14 
REMARK    2  A    between atoms: C_9  and  C_10 
ROOT
HETATM    1  O   UNK     0      94.663 134.677  60.084  0.00  0.00    -0.168 OA
HETATM    2  N   UNK     0      96.098 135.486  62.105  0.00  0.00    -0.223 NA
HETATM    3  N   UNK     0      93.284 134.651  63.937  0.00  0.00    -0.241 NA
HETATM    4  C   UNK     0      95.694 135.686  64.843  0.00  0.00     0.014 A 
HETATM    5  C   UNK     0      96.514 135.831  63.548  0.00  0.00     0.059 A 
HETATM    6  C   UNK     0      94.258 135.161  65.017  0.00  0.00     0.071 A 
HETATM    7  C   UNK     0      96.316 136.107  66.262  0.00  0.00     0.075 A 
HETATM    8  C   UNK     0      98.011 136.406  63.580  0.00  0.00     0.052 A 
HETATM    9  C   UNK     0      93.509 134.539  62.418  0.00  0.00     0.146 A 
HETATM   10  C   UNK     0      97.810 136.685  66.331  0.00  0.00     0.087 A 
HETATM   11  C   UNK     0      94.761 134.911  61.602  0.00  0.00     0.232 A 
HETATM   12  C   UNK     0      98.663 136.836  64.981  0.00  0.00     0.052 A 
ENDROOT
BRANCH   6  13
HETATM   13  C   UNK     0      93.722 135.144  66.461  0.00  0.00    -0.027 A 
HETATM   14  C   UNK     0      93.400 136.469  67.179  0.00  0.00     0.024 A 
HETATM   15  C   UNK     0      92.865 136.450  68.623  0.00  0.00     0.004 A 
HETATM   16  C   UNK     0      92.651 135.110  69.348  0.00  0.00     0.001 A 
HETATM   17  C   UNK     0      92.973 133.786  68.631  0.00  0.00     0.004 A 
HETATM   18  C   UNK     0      93.508 133.803  67.187  0.00  0.00     0.024 A 
ENDBRANCH   6  13
BRANCH  10  19
HETATM   19  N   UNK     0      98.421 137.093  67.684  0.00  0.00    -0.122 N 
HETATM   20  O   UNK     0      99.951 137.157  67.850  0.00  0.00    -0.532 OA
HETATM   21  O   UNK     0      97.502 137.438  68.871  0.00  0.00    -0.532 OA
ENDBRANCH  10  19
TORSDOF 2
ENDMDL
MODEL 3
REMARK VINA RESULT:      -6.0     55.148     57.571
REMARK  2 active torsions:
REMARK  status: ('A' for Active; 'I' for Inactive)
REMARK    1  A    between atoms: N_6  and  C_14 
REMARK    2  A    between atoms: C_9  and  C_10 
ROOT
HETATM    1  O   UNK     0     140.768 137.448  95.232  0.00  0.00    -0.168 OA
HETATM    2  N   UNK     0     140.435 136.503  97.639  0.00  0.00    -0.223 NA
HETATM    3  N   UNK     0     137.300 137.938  97.349  0.00  0.00    -0.241 NA
HETATM    4  C   UNK     0     138.367 136.531  99.489  0.00  0.00     0.014 A 
HETATM    5  C   UNK     0     139.779 136.167  98.992  0.00  0.00     0.059 A 
HETATM    6  C   UNK     0     137.264 137.319  98.759  0.00  0.00     0.071 A 
HETATM    7  C   UNK     0     137.868 136.083 100.947  0.00  0.00     0.075 A 
HETATM    8  C   UNK     0     140.788 135.331  99.916  0.00  0.00     0.052 A 
HETATM    9  C   UNK     0     138.448 137.923  96.322  0.00  0.00     0.146 A 
HETATM   10  C   UNK     0     138.851 135.246 101.897  0.00  0.00     0.087 A 
HETATM   11  C   UNK     0     139.843 137.284  96.451  0.00  0.00     0.232 A 
HETATM   12  C   UNK     0     140.321 134.867 101.378  0.00  0.00     0.052 A 
ENDROOT
BRANCH   6  13
HETATM   13  C   UNK     0     135.952 137.513  99.541  0.00  0.00    -0.027 A 
HETATM   14  C   UNK     0     135.789 138.721 100.483  0.00  0.00     0.024 A 
HETATM   15  C   UNK     0     134.476 138.914 101.265  0.00  0.00     0.004 A 
HETATM   16  C   UNK     0     133.328 137.902 101.105  0.00  0.00     0.001 A 
HETATM   17  C   UNK     0     133.491 136.695 100.163  0.00  0.00     0.004 A 
HETATM   18  C   UNK     0     134.803 136.500  99.381  0.00  0.00     0.024 A 
ENDBRANCH   6  13
BRANCH  10  19
HETATM   19  N   UNK     0     138.387 134.808 103.300  0.00  0.00    -0.122 N 
HETATM   20  O   UNK     0     138.716 133.393 103.812  0.00  0.00    -0.532 OA
HETATM   21  O   UNK     0     137.596 135.784 104.188  0.00  0.00    -0.532 OA
ENDBRANCH  10  19
TORSDOF 2
ENDMDL
MODEL 4
REMARK VINA RESULT:      -5.9     57.287     59.583
REMARK  2 active torsions:
REMARK  status: ('A' for Active; 'I' for Inactive)
REMARK    1  A    between atoms: N_6  and  C_14 
REMARK    2  A    between atoms: C_9  and  C_10 
ROOT
HETATM    1  O   UNK     0     134.327 137.388  94.315  0.00  0.00    -0.168 OA
HETATM    2  N   UNK     0     136.500 138.596  95.101  0.00  0.00    -0.223 NA
HETATM    3  N   UNK     0     136.678 135.974  97.352  0.00  0.00    -0.241 NA
HETATM    4  C   UNK     0     138.421 138.111  97.044  0.00  0.00     0.014 A 
HETATM    5  C   UNK     0     137.786 138.908  95.889  0.00  0.00     0.059 A 
HETATM    6  C   UNK     0     137.929 136.806  97.695  0.00  0.00     0.071 A 
HETATM    7  C   UNK     0     139.778 138.610  97.740  0.00  0.00     0.075 A 
HETATM    8  C   UNK     0     138.463 140.259  95.351  0.00  0.00     0.052 A 
HETATM    9  C   UNK     0     135.612 136.243  96.274  0.00  0.00     0.146 A 
HETATM   10  C   UNK     0     140.481 139.957  97.227  0.00  0.00     0.087 A 
HETATM   11  C   UNK     0     135.533 137.410  95.272  0.00  0.00     0.232 A 
HETATM   12  C   UNK     0     139.819 140.787  96.024  0.00  0.00     0.052 A 
ENDROOT
BRANCH   6  13
HETATM   13  C   UNK     0     138.801 136.259  98.840  0.00  0.00    -0.027 A 
HETATM   14  C   UNK     0     139.942 135.270  98.534  0.00  0.00     0.024 A 
HETATM   15  C   UNK     0     140.815 134.724  99.680  0.00  0.00     0.004 A 
HETATM   16  C   UNK     0     140.546 135.165 101.130  0.00  0.00     0.001 A 
HETATM   17  C   UNK     0     139.406 136.153 101.436  0.00  0.00     0.004 A 
HETATM   18  C   UNK     0     138.533 136.700 100.291  0.00  0.00     0.024 A 
ENDBRANCH   6  13
BRANCH  10  19
HETATM   19  N   UNK     0     141.785 140.450  97.884  0.00  0.00    -0.122 N 
HETATM   20  O   UNK     0     142.067 141.959  97.996  0.00  0.00    -0.532 OA
HETATM   21  O   UNK     0     142.804 139.433  98.429  0.00  0.00    -0.532 OA
ENDBRANCH  10  19
TORSDOF 2
ENDMDL
MODEL 5
REMARK VINA RESULT:      -5.8     56.110     58.537
REMARK  2 active torsions:
REMARK  status: ('A' for Active; 'I' for Inactive)
REMARK    1  A    between atoms: N_6  and  C_14 
REMARK    2  A    between atoms: C_9  and  C_10 
ROOT
HETATM    1  O   UNK     0     141.057 140.927  95.680  0.00  0.00    -0.168 OA
HETATM    2  N   UNK     0     140.767 139.101  97.519  0.00  0.00    -0.223 NA
HETATM    3  N   UNK     0     137.414 139.909  97.244  0.00  0.00    -0.241 NA
HETATM    4  C   UNK     0     138.611 138.033  98.902  0.00  0.00     0.014 A 
HETATM    5  C   UNK     0     140.104 138.162  98.544  0.00  0.00     0.059 A 
HETATM    6  C   UNK     0     137.415 138.810  98.324  0.00  0.00     0.071 A 
HETATM    7  C   UNK     0     138.119 136.983 100.010  0.00  0.00     0.075 A 
HETATM    8  C   UNK     0     141.207 137.250  99.270  0.00  0.00     0.052 A 
HETATM    9  C   UNK     0     138.611 140.501  96.476  0.00  0.00     0.146 A 
HETATM   10  C   UNK     0     139.194 136.056 100.755  0.00  0.00     0.087 A 
HETATM   11  C   UNK     0     140.103 140.142  96.599  0.00  0.00     0.232 A 
HETATM   12  C   UNK     0     140.748 136.190 100.382  0.00  0.00     0.052 A 
ENDROOT
BRANCH   6  13
HETATM   13  C   UNK     0     136.036 138.440  98.900  0.00  0.00    -0.027 A 
HETATM   14  C   UNK     0     135.080 137.540  98.094  0.00  0.00     0.024 A 
HETATM   15  C   UNK     0     133.701 137.170  98.672  0.00  0.00     0.004 A 
HETATM   16  C   UNK     0     133.278 137.700 100.054  0.00  0.00     0.001 A 
HETATM   17  C   UNK     0     134.233 138.599 100.860  0.00  0.00     0.004 A 
HETATM   18  C   UNK     0     135.612 138.969 100.283  0.00  0.00     0.024 A 
ENDBRANCH   6  13
BRANCH  10  19
HETATM   19  N   UNK     0     138.738 135.042 101.822  0.00  0.00    -0.122 N 
HETATM   20  O   UNK     0     137.278 134.551 101.842  0.00  0.00    -0.532 OA
HETATM   21  O   UNK     0     139.741 134.521 102.867  0.00  0.00    -0.532 OA
ENDBRANCH  10  19
TORSDOF 2
ENDMDL
MODEL 6
REMARK VINA RESULT:      -5.8     57.050     59.428
REMARK  2 active torsions:
REMARK  status: ('A' for Active; 'I' for Inactive)
REMARK    1  A    between atoms: N_6  and  C_14 
REMARK    2  A    between atoms: C_9  and  C_10 
ROOT
HETATM    1  O   UNK     0     143.435 139.980  98.456  0.00  0.00    -0.168 OA
HETATM    2  N   UNK     0     141.280 139.054  99.595  0.00  0.00    -0.223 NA
HETATM    3  N   UNK     0     139.785 139.948  96.605  0.00  0.00    -0.241 NA
HETATM    4  C   UNK     0     138.622 138.788  98.842  0.00  0.00     0.014 A 
HETATM    5  C   UNK     0     139.810 138.649  99.813  0.00  0.00     0.059 A 
HETATM    6  C   UNK     0     138.611 139.367  97.415  0.00  0.00     0.071 A 
HETATM    7  C   UNK     0     137.153 138.301  99.264  0.00  0.00     0.075 A 
HETATM    8  C   UNK     0     139.611 138.013 101.272  0.00  0.00     0.052 A 
HETATM    9  C   UNK     0     141.260 140.095  97.023  0.00  0.00     0.146 A 
HETATM   10  C   UNK     0     136.918 137.660 100.715  0.00  0.00     0.087 A 
HETATM   11  C   UNK     0     141.925 139.697  98.354  0.00  0.00     0.232 A 
HETATM   12  C   UNK     0     138.155 137.515 101.726  0.00  0.00     0.052 A 
ENDROOT
BRANCH   6  13
HETATM   13  C   UNK     0     137.245 139.363  96.703  0.00  0.00    -0.027 A 
HETATM   14  C   UNK     0     136.818 138.144  95.863  0.00  0.00     0.024 A 
HETATM   15  C   UNK     0     135.452 138.141  95.151  0.00  0.00     0.004 A 
HETATM   16  C   UNK     0     134.514 139.355  95.279  0.00  0.00     0.001 A 
HETATM   17  C   UNK     0     134.941 140.573  96.119  0.00  0.00     0.004 A 
HETATM   18  C   UNK     0     136.306 140.577  96.831  0.00  0.00     0.024 A 
ENDBRANCH   6  13
BRANCH  10  19
HETATM   19  N   UNK     0     135.513 137.187 101.136  0.00  0.00    -0.122 N 
HETATM   20  O   UNK     0     134.291 137.537 100.267  0.00  0.00    -0.532 OA
HETATM   21  O   UNK     0     135.333 136.365 102.425  0.00  0.00    -0.532 OA
ENDBRANCH  10  19
TORSDOF 2
ENDMDL
MODEL 7
REMARK VINA RESULT:      -5.4      2.572      2.837
REMARK  2 active torsions:
REMARK  status: ('A' for Active; 'I' for Inactive)
REMARK    1  A    between atoms: N_6  and  C_14 
REMARK    2  A    between atoms: C_9  and  C_10 
ROOT
HETATM    1  O   UNK     0     153.110 115.829 156.017  0.00  0.00    -0.168 OA
HETATM    2  N   UNK     0     154.770 116.320 154.067  0.00  0.00    -0.223 NA
HETATM    3  N   UNK     0     152.546 114.425 152.214  0.00  0.00    -0.241 NA
HETATM    4  C   UNK     0     154.891 115.650 151.376  0.00  0.00     0.014 A 
HETATM    5  C   UNK     0     155.404 116.325 152.663  0.00  0.00     0.059 A 
HETATM    6  C   UNK     0     153.620 114.805 151.177  0.00  0.00     0.071 A 
HETATM    7  C   UNK     0     155.706 115.776 150.000  0.00  0.00     0.075 A 
HETATM    8  C   UNK     0     156.766 117.172 152.662  0.00  0.00     0.052 A 
HETATM    9  C   UNK     0     152.479 114.797 153.707  0.00  0.00     0.146 A 
HETATM   10  C   UNK     0     157.072 116.615 149.964  0.00  0.00     0.087 A 
HETATM   11  C   UNK     0     153.469 115.640 154.531  0.00  0.00     0.232 A 
HETATM   12  C   UNK     0     157.606 117.317 151.304  0.00  0.00     0.052 A 
ENDROOT
BRANCH   6  13
HETATM   13  C   UNK     0     153.392 114.268 149.752  0.00  0.00    -0.027 A 
HETATM   14  C   UNK     0     152.569 115.090 148.742  0.00  0.00     0.024 A 
HETATM   15  C   UNK     0     152.341 114.552 147.316  0.00  0.00     0.004 A 
HETATM   16  C   UNK     0     152.935 113.194 146.901  0.00  0.00     0.001 A 
HETATM   17  C   UNK     0     153.757 112.372 147.911  0.00  0.00     0.004 A 
HETATM   18  C   UNK     0     153.986 112.909 149.336  0.00  0.00     0.024 A 
ENDBRANCH   6  13
BRANCH  10  19
HETATM   19  N   UNK     0     157.867 116.745 148.651  0.00  0.00    -0.122 N 
HETATM   20  O   UNK     0     157.772 118.037 147.818  0.00  0.00    -0.532 OA
HETATM   21  O   UNK     0     158.756 115.583 148.171  0.00  0.00    -0.532 OA
ENDBRANCH  10  19
TORSDOF 2
ENDMDL
MODEL 8
REMARK VINA RESULT:      -5.4     59.609     61.746
REMARK  2 active torsions:
REMARK  status: ('A' for Active; 'I' for Inactive)
REMARK    1  A    between atoms: N_6  and  C_14 
REMARK    2  A    between atoms: C_9  and  C_10 
ROOT
HETATM    1  O   UNK     0     114.153 153.206 133.117  0.00  0.00    -0.168 OA
HETATM    2  N   UNK     0     112.286 152.438 131.467  0.00  0.00    -0.223 NA
HETATM    3  N   UNK     0     111.844 155.838 130.999  0.00  0.00    -0.241 NA
HETATM    4  C   UNK     0     110.470 153.736 129.817  0.00  0.00     0.014 A 
HETATM    5  C   UNK     0     111.138 152.496 130.441  0.00  0.00     0.059 A 
HETATM    6  C   UNK     0     110.784 155.222 130.066  0.00  0.00     0.071 A 
HETATM    7  C   UNK     0     109.277 153.581 128.756  0.00  0.00     0.075 A 
HETATM    8  C   UNK     0     110.661 151.016 130.046  0.00  0.00     0.052 A 
HETATM    9  C   UNK     0     112.851 155.118 131.914  0.00  0.00     0.146 A 
HETATM   10  C   UNK     0     108.775 152.116 128.339  0.00  0.00     0.087 A 
HETATM   11  C   UNK     0     113.048 153.605 132.122  0.00  0.00     0.232 A 
HETATM   12  C   UNK     0     109.471 150.826 128.988  0.00  0.00     0.052 A 
ENDROOT
BRANCH   6  13
HETATM   13  C   UNK     0     109.924 156.227 129.277  0.00  0.00    -0.027 A 
HETATM   14  C   UNK     0     110.574 157.120 128.203  0.00  0.00     0.024 A 
HETATM   15  C   UNK     0     109.713 158.125 127.414  0.00  0.00     0.004 A 
HETATM   16  C   UNK     0     108.205 158.237 127.699  0.00  0.00     0.001 A 
HETATM   17  C   UNK     0     107.555 157.345 128.772  0.00  0.00     0.004 A 
HETATM   18  C   UNK     0     108.414 156.340 129.561  0.00  0.00     0.024 A 
ENDBRANCH   6  13
BRANCH  10  19
HETATM   19  N   UNK     0     107.630 151.950 127.320  0.00  0.00    -0.122 N 
HETATM   20  O   UNK     0     106.380 152.844 127.416  0.00  0.00    -0.532 OA
HETATM   21  O   UNK     0     107.738 150.891 126.208  0.00  0.00    -0.532 OA
ENDBRANCH  10  19
TORSDOF 2
ENDMDL
MODEL 9
REMARK VINA RESULT:      -5.3     72.756     74.796
REMARK  2 active torsions:
REMARK  status: ('A' for Active; 'I' for Inactive)
REMARK    1  A    between atoms: N_6  and  C_14 
REMARK    2  A    between atoms: C_9  and  C_10 
ROOT
HETATM    1  O   UNK     0     112.163 146.151 101.217  0.00  0.00    -0.168 OA
HETATM    2  N   UNK     0     113.456 146.536  98.986  0.00  0.00    -0.223 NA
HETATM    3  N   UNK     0     112.322 149.786  99.343  0.00  0.00    -0.241 NA
HETATM    4  C   UNK     0     113.892 148.713  97.321  0.00  0.00     0.014 A 
HETATM    5  C   UNK     0     114.038 147.240  97.745  0.00  0.00     0.059 A 
HETATM    6  C   UNK     0     113.129 149.846  98.031  0.00  0.00     0.071 A 
HETATM    7  C   UNK     0     114.583 149.255  95.978  0.00  0.00     0.075 A 
HETATM    8  C   UNK     0     114.885 146.207  96.857  0.00  0.00     0.052 A 
HETATM    9  C   UNK     0     112.080 148.578 100.267  0.00  0.00     0.146 A 
HETATM   10  C   UNK     0     115.437 148.250  95.067  0.00  0.00     0.087 A 
HETATM   11  C   UNK     0     112.585 147.132 100.108  0.00  0.00     0.232 A 
HETATM   12  C   UNK     0     115.589 146.716  95.509  0.00  0.00     0.052 A 
ENDROOT
BRANCH   6  13
HETATM   13  C   UNK     0     113.177 151.221  97.340  0.00  0.00    -0.027 A 
HETATM   14  C   UNK     0     114.349 152.182  97.618  0.00  0.00     0.024 A 
HETATM   15  C   UNK     0     114.398 153.557  96.926  0.00  0.00     0.004 A 
HETATM   16  C   UNK     0     113.275 153.971  95.957  0.00  0.00     0.001 A 
HETATM   17  C   UNK     0     112.104 153.011  95.679  0.00  0.00     0.004 A 
HETATM   18  C   UNK     0     112.055 151.636  96.370  0.00  0.00     0.024 A 
ENDBRANCH   6  13
BRANCH  10  19
HETATM   19  N   UNK     0     116.107 148.754  93.774  0.00  0.00    -0.122 N 
HETATM   20  O   UNK     0     116.917 147.782  92.897  0.00  0.00    -0.532 OA
HETATM   21  O   UNK     0     115.966 150.231  93.361  0.00  0.00    -0.532 OA
ENDBRANCH  10  19
TORSDOF 2
ENDMDL
MODEL 10
REMARK VINA RESULT:      -5.2      1.923      2.782
REMARK  2 active torsions:
REMARK  status: ('A' for Active; 'I' for Inactive)
REMARK    1  A    between atoms: N_6  and  C_14 
REMARK    2  A    between atoms: C_9  and  C_10 
ROOT
HETATM    1  O   UNK     0     153.087 116.836 154.454  0.00  0.00    -0.168 OA
HETATM    2  N   UNK     0     153.464 117.590 151.986  0.00  0.00    -0.223 NA
HETATM    3  N   UNK     0     152.739 114.282 151.275  0.00  0.00    -0.241 NA
HETATM    4  C   UNK     0     153.366 116.333 149.513  0.00  0.00     0.014 A 
HETATM    5  C   UNK     0     153.575 117.538 150.450  0.00  0.00     0.059 A 
HETATM    6  C   UNK     0     152.994 114.885 149.880  0.00  0.00     0.071 A 
HETATM    7  C   UNK     0     153.530 116.488 147.925  0.00  0.00     0.075 A 
HETATM    8  C   UNK     0     153.963 118.980 149.864  0.00  0.00     0.052 A 
HETATM    9  C   UNK     0     152.794 114.980 152.647  0.00  0.00     0.146 A 
HETATM   10  C   UNK     0     153.917 117.915 147.305  0.00  0.00     0.087 A 
HETATM   11  C   UNK     0     153.116 116.452 152.963  0.00  0.00     0.232 A 
HETATM   12  C   UNK     0     154.135 119.169 148.281  0.00  0.00     0.052 A 
ENDROOT
BRANCH   6  13
HETATM   13  C   UNK     0     152.859 113.910 148.696  0.00  0.00    -0.027 A 
HETATM   14  C   UNK     0     153.955 112.859 148.434  0.00  0.00     0.024 A 
HETATM   15  C   UNK     0     153.819 111.884 147.250  0.00  0.00     0.004 A 
HETATM   16  C   UNK     0     152.588 111.959 146.328  0.00  0.00     0.001 A 
HETATM   17  C   UNK     0     151.492 113.009 146.590  0.00  0.00     0.004 A 
HETATM   18  C   UNK     0     151.628 113.984 147.774  0.00  0.00     0.024 A 
ENDBRANCH   6  13
BRANCH  10  19
HETATM   19  N   UNK     0     154.079 118.081 145.782  0.00  0.00    -0.122 N 
HETATM   20  O   UNK     0     155.467 118.371 145.182  0.00  0.00    -0.532 OA
HETATM   21  O   UNK     0     152.852 117.955 144.860  0.00  0.00    -0.532 OA
ENDBRANCH  10  19
TORSDOF 2
ENDMDL
