REMARK  4 active torsions:
REMARK  status: ('A' for Active; 'I' for Inactive)
REMARK    1  A    between atoms: C_2  and  C_3 
REMARK    2  A    between atoms: C_3  and  C_4 
REMARK    3  A    between atoms: C_4  and  C_6 
REMARK    4  A    between atoms: C_6  and  C_7 
ROOT
HETATM    1  C   UNK     0      12.265   4.001   0.000  0.00  0.00     0.032 A 
HETATM    2  C   UNK     0      12.265   2.461   0.000  0.00  0.00     0.155 A 
HETATM    3  N   UNK     0      13.598   1.691   0.000  0.00  0.00    -0.156 NA
HETATM    4  C   UNK     0      13.598   4.771   0.000  0.00  0.00     0.069 A 
HETATM    5  C   UNK     0      14.932   4.001   0.000  0.00  0.00     0.295 A 
HETATM    6  O   UNK     0      16.266   4.771   0.000  0.00  0.00    -0.188 OA
HETATM    7  O   UNK     0      14.932   2.461   0.000  0.00  0.00    -0.210 OA
ENDROOT
BRANCH   1   8
HETATM    8  C   UNK     0      10.931   4.771   0.000  0.00  0.00     0.002 C 
BRANCH   8   9
HETATM    9  C   UNK     0       9.597   4.001   0.000  0.00  0.00     0.000 C 
HETATM   10  C   UNK     0       9.597   2.461   0.000  0.00  0.00     0.000 C 
BRANCH   9  11
HETATM   11  C   UNK     0       8.264   4.771   0.000  0.00  0.00     0.000 C 
BRANCH  11  12
HETATM   12  C   UNK     0       6.930   4.001   0.000  0.00  0.00     0.000 C 
HETATM   13  C   UNK     0       5.596   4.771   0.000  0.00  0.00     0.000 C 
ENDBRANCH  11  12
ENDBRANCH   9  11
ENDBRANCH   8   9
ENDBRANCH   1   8
TORSDOF 4
