MODEL 1
REMARK VINA RESULT:      -8.4      0.000      0.000
REMARK  0 active torsions:
REMARK  status: ('A' for Active; 'I' for Inactive)
ROOT
HETATM    1  O   UNK     0     162.319 162.516 153.475  0.00  0.00    -0.304 OA
HETATM    2  O   UNK     0     158.552 160.161 150.369  0.00  0.00    -0.152 OA
HETATM    3  N   UNK     0     159.999 159.404 152.573  0.00  0.00     0.418 N 
HETATM    4  N   UNK     0     160.413 161.693 151.680  0.00  0.00     0.440 N 
HETATM    5  C   UNK     0     161.069 160.072 153.456  0.00  0.00     0.326 A 
HETATM    6  C   UNK     0     161.147 158.802 154.323  0.00  0.00    -0.009 A 
HETATM    7  C   UNK     0     162.111 160.316 154.563  0.00  0.00     0.031 A 
HETATM    8  C   UNK     0     161.325 161.487 152.904  0.00  0.00     0.424 A 
HETATM    9  C   UNK     0     159.594 160.405 151.476  0.00  0.00     0.663 A 
HETATM   10  C   UNK     0     161.896 158.259 155.555  0.00  0.00    -0.032 A 
HETATM   11  C   UNK     0     162.854 161.664 154.639  0.00  0.00     0.072 A 
HETATM   12  C   UNK     0     160.108 157.923 153.605  0.00  0.00     0.024 A 
HETATM   13  C   UNK     0     162.411 159.213 155.595  0.00  0.00    -0.027 A 
HETATM   14  C   UNK     0     163.896 161.907 155.746  0.00  0.00     0.051 A 
HETATM   15  C   UNK     0     161.604 156.837 156.068  0.00  0.00     0.025 A 
HETATM   16  C   UNK     0     159.816 156.501 154.118  0.00  0.00     0.005 A 
HETATM   17  C   UNK     0     163.453 159.457 156.702  0.00  0.00     0.026 A 
HETATM   18  C   UNK     0     164.195 160.803 156.778  0.00  0.00     0.011 A 
HETATM   19  C   UNK     0     160.563 155.958 155.349  0.00  0.00     0.005 A 
ENDROOT
TORSDOF 0
ENDMDL
MODEL 2
REMARK VINA RESULT:      -7.8     47.148     49.059
REMARK  0 active torsions:
REMARK  status: ('A' for Active; 'I' for Inactive)
ROOT
HETATM    1  O   UNK     0     138.839 128.954 125.743  0.00  0.00    -0.304 OA
HETATM    2  O   UNK     0     140.491 127.485 120.793  0.00  0.00    -0.152 OA
HETATM    3  N   UNK     0     140.506 126.309 123.272  0.00  0.00     0.418 N 
HETATM    4  N   UNK     0     139.531 128.596 123.111  0.00  0.00     0.440 N 
HETATM    5  C   UNK     0     140.037 126.726 124.678  0.00  0.00     0.326 A 
HETATM    6  C   UNK     0     140.519 125.376 125.239  0.00  0.00    -0.009 A 
HETATM    7  C   UNK     0     139.740 126.706 126.189  0.00  0.00     0.031 A 
HETATM    8  C   UNK     0     139.434 128.140 124.578  0.00  0.00     0.424 A 
HETATM    9  C   UNK     0     140.193 127.465 122.304  0.00  0.00     0.663 A 
HETATM   10  C   UNK     0     140.586 124.609 126.573  0.00  0.00    -0.032 A 
HETATM   11  C   UNK     0     139.069 127.920 126.858  0.00  0.00     0.072 A 
HETATM   12  C   UNK     0     141.064 124.730 123.952  0.00  0.00     0.024 A 
HETATM   13  C   UNK     0     140.113 125.471 127.030  0.00  0.00    -0.027 A 
HETATM   14  C   UNK     0     138.772 127.899 128.369  0.00  0.00     0.051 A 
HETATM   15  C   UNK     0     141.199 123.197 126.620  0.00  0.00     0.025 A 
HETATM   16  C   UNK     0     141.677 123.318 123.999  0.00  0.00     0.005 A 
HETATM   17  C   UNK     0     139.816 125.451 128.541  0.00  0.00     0.026 A 
HETATM   18  C   UNK     0     139.145 126.664 129.211  0.00  0.00     0.011 A 
HETATM   19  C   UNK     0     141.745 122.552 125.332  0.00  0.00     0.005 A 
ENDROOT
TORSDOF 0
ENDMDL
MODEL 3
REMARK VINA RESULT:      -7.5     53.530     54.213
REMARK  0 active torsions:
REMARK  status: ('A' for Active; 'I' for Inactive)
ROOT
HETATM    1  O   UNK     0     130.046 138.097 116.836  0.00  0.00    -0.304 OA
HETATM    2  O   UNK     0     133.332 138.887 112.597  0.00  0.00    -0.152 OA
HETATM    3  N   UNK     0     132.703 136.745 114.193  0.00  0.00     0.418 N 
HETATM    4  N   UNK     0     131.567 138.904 114.699  0.00  0.00     0.440 N 
HETATM    5  C   UNK     0     131.770 136.520 115.397  0.00  0.00     0.326 A 
HETATM    6  C   UNK     0     132.205 135.044 115.458  0.00  0.00    -0.009 A 
HETATM    7  C   UNK     0     131.016 135.851 116.561  0.00  0.00     0.031 A 
HETATM    8  C   UNK     0     131.068 137.855 115.710  0.00  0.00     0.424 A 
HETATM    9  C   UNK     0     132.578 138.217 113.762  0.00  0.00     0.663 A 
HETATM   10  C   UNK     0     131.937 133.770 116.280  0.00  0.00    -0.032 A 
HETATM   11  C   UNK     0     130.031 136.672 117.414  0.00  0.00     0.072 A 
HETATM   12  C   UNK     0     133.199 135.009 114.284  0.00  0.00     0.024 A 
HETATM   13  C   UNK     0     131.247 134.361 116.872  0.00  0.00    -0.027 A 
HETATM   14  C   UNK     0     129.278 136.002 118.579  0.00  0.00     0.051 A 
HETATM   15  C   UNK     0     132.665 132.459 115.927  0.00  0.00     0.025 A 
HETATM   16  C   UNK     0     133.927 133.698 113.930  0.00  0.00     0.005 A 
HETATM   17  C   UNK     0     130.494 133.692 118.037  0.00  0.00     0.026 A 
HETATM   18  C   UNK     0     129.509 134.512 118.890  0.00  0.00     0.011 A 
HETATM   19  C   UNK     0     133.660 132.424 114.751  0.00  0.00     0.005 A 
ENDROOT
TORSDOF 0
ENDMDL
MODEL 4
REMARK VINA RESULT:      -7.0     53.510     55.336
REMARK  0 active torsions:
REMARK  status: ('A' for Active; 'I' for Inactive)
ROOT
HETATM    1  O   UNK     0     127.324 134.928 118.346  0.00  0.00    -0.304 OA
HETATM    2  O   UNK     0     131.316 138.160 116.613  0.00  0.00    -0.152 OA
HETATM    3  N   UNK     0     130.922 135.447 116.714  0.00  0.00     0.418 N 
HETATM    4  N   UNK     0     129.091 136.889 117.595  0.00  0.00     0.440 N 
HETATM    5  C   UNK     0     129.788 134.528 117.206  0.00  0.00     0.326 A 
HETATM    6  C   UNK     0     130.610 133.293 116.793  0.00  0.00    -0.009 A 
HETATM    7  C   UNK     0     128.964 133.273 117.547  0.00  0.00     0.031 A 
HETATM    8  C   UNK     0     128.657 135.420 117.751  0.00  0.00     0.424 A 
HETATM    9  C   UNK     0     130.491 136.905 116.954  0.00  0.00     0.663 A 
HETATM   10  C   UNK     0     130.510 131.756 116.794  0.00  0.00    -0.032 A 
HETATM   11  C   UNK     0     127.571 133.418 118.189  0.00  0.00     0.072 A 
HETATM   12  C   UNK     0     131.869 133.982 116.237  0.00  0.00     0.024 A 
HETATM   13  C   UNK     0     129.531 131.874 117.246  0.00  0.00    -0.027 A 
HETATM   14  C   UNK     0     126.747 132.162 118.530  0.00  0.00     0.051 A 
HETATM   15  C   UNK     0     131.670 130.909 116.238  0.00  0.00     0.025 A 
HETATM   16  C   UNK     0     133.029 133.135 115.681  0.00  0.00     0.005 A 
HETATM   17  C   UNK     0     128.706 130.619 117.587  0.00  0.00     0.026 A 
HETATM   18  C   UNK     0     127.315 130.763 118.228  0.00  0.00     0.011 A 
HETATM   19  C   UNK     0     132.929 131.599 115.681  0.00  0.00     0.005 A 
ENDROOT
TORSDOF 0
ENDMDL
MODEL 5
REMARK VINA RESULT:      -6.8     44.238     45.655
REMARK  0 active torsions:
REMARK  status: ('A' for Active; 'I' for Inactive)
ROOT
HETATM    1  O   UNK     0     164.480 145.387 110.517  0.00  0.00    -0.304 OA
HETATM    2  O   UNK     0     168.032 148.286 107.624  0.00  0.00    -0.152 OA
HETATM    3  N   UNK     0     165.756 148.862 109.044  0.00  0.00     0.418 N 
HETATM    4  N   UNK     0     166.479 146.478 108.985  0.00  0.00     0.440 N 
HETATM    5  C   UNK     0     164.747 148.039 109.866  0.00  0.00     0.326 A 
HETATM    6  C   UNK     0     163.950 149.321 110.170  0.00  0.00    -0.009 A 
HETATM    7  C   UNK     0     163.541 147.652 110.741  0.00  0.00     0.031 A 
HETATM    8  C   UNK     0     165.194 146.566 109.829  0.00  0.00     0.424 A 
HETATM    9  C   UNK     0     166.826 147.898 108.500  0.00  0.00     0.663 A 
HETATM   10  C   UNK     0     162.690 149.773 110.932  0.00  0.00    -0.032 A 
HETATM   11  C   UNK     0     163.325 146.182 111.148  0.00  0.00     0.072 A 
HETATM   12  C   UNK     0     164.805 150.354 109.414  0.00  0.00     0.024 A 
HETATM   13  C   UNK     0     162.551 148.734 111.211  0.00  0.00    -0.027 A 
HETATM   14  C   UNK     0     162.118 145.796 112.024  0.00  0.00     0.051 A 
HETATM   15  C   UNK     0     162.286 151.259 110.938  0.00  0.00     0.025 A 
HETATM   16  C   UNK     0     164.401 151.840 109.420  0.00  0.00     0.005 A 
HETATM   17  C   UNK     0     161.345 148.347 112.086  0.00  0.00     0.026 A 
HETATM   18  C   UNK     0     161.129 146.878 112.493  0.00  0.00     0.011 A 
HETATM   19  C   UNK     0     163.142 152.293 110.182  0.00  0.00     0.005 A 
ENDROOT
TORSDOF 0
ENDMDL
MODEL 6
REMARK VINA RESULT:      -6.8     94.137     96.831
REMARK  0 active torsions:
REMARK  status: ('A' for Active; 'I' for Inactive)
ROOT
HETATM    1  O   UNK     0      93.809 146.453  82.613  0.00  0.00    -0.304 OA
HETATM    2  O   UNK     0      95.184 151.323  84.556  0.00  0.00    -0.152 OA
HETATM    3  N   UNK     0      94.846 148.826  85.641  0.00  0.00     0.418 N 
HETATM    4  N   UNK     0      94.462 149.055  83.190  0.00  0.00     0.440 N 
HETATM    5  C   UNK     0      94.455 147.442  85.090  0.00  0.00     0.326 A 
HETATM    6  C   UNK     0      94.578 146.844  86.503  0.00  0.00    -0.009 A 
HETATM    7  C   UNK     0      94.122 145.941  85.001  0.00  0.00     0.031 A 
HETATM    8  C   UNK     0      94.218 147.584  83.575  0.00  0.00     0.424 A 
HETATM    9  C   UNK     0      94.850 149.822  84.468  0.00  0.00     0.663 A 
HETATM   10  C   UNK     0      94.421 145.496  87.231  0.00  0.00    -0.032 A 
HETATM   11  C   UNK     0      93.749 145.314  83.645  0.00  0.00     0.072 A 
HETATM   12  C   UNK     0      94.984 148.102  87.292  0.00  0.00     0.024 A 
HETATM   13  C   UNK     0      94.160 145.068  86.269  0.00  0.00    -0.027 A 
HETATM   14  C   UNK     0      93.416 143.813  83.557  0.00  0.00     0.051 A 
HETATM   15  C   UNK     0      94.669 145.406  88.748  0.00  0.00     0.025 A 
HETATM   16  C   UNK     0      95.232 148.013  88.809  0.00  0.00     0.005 A 
HETATM   17  C   UNK     0      93.826 143.567  86.181  0.00  0.00     0.026 A 
HETATM   18  C   UNK     0      93.454 142.940  84.825  0.00  0.00     0.011 A 
HETATM   19  C   UNK     0      95.075 146.665  89.537  0.00  0.00     0.005 A 
ENDROOT
TORSDOF 0
ENDMDL
MODEL 7
REMARK VINA RESULT:      -6.7     70.066     72.603
REMARK  0 active torsions:
REMARK  status: ('A' for Active; 'I' for Inactive)
ROOT
HETATM    1  O   UNK     0     121.745 159.355  97.132  0.00  0.00    -0.304 OA
HETATM    2  O   UNK     0     123.946 160.127  92.239  0.00  0.00    -0.152 OA
HETATM    3  N   UNK     0     121.517 159.239  93.156  0.00  0.00     0.418 N 
HETATM    4  N   UNK     0     123.209 159.877  94.870  0.00  0.00     0.440 N 
HETATM    5  C   UNK     0     120.892 159.020  94.546  0.00  0.00     0.326 A 
HETATM    6  C   UNK     0     119.589 158.535  93.883  0.00  0.00    -0.009 A 
HETATM    7  C   UNK     0     119.895 158.662  95.663  0.00  0.00     0.031 A 
HETATM    8  C   UNK     0     121.937 159.414  95.605  0.00  0.00     0.424 A 
HETATM    9  C   UNK     0     122.949 159.768  93.356  0.00  0.00     0.663 A 
HETATM   10  C   UNK     0     118.189 158.022  94.269  0.00  0.00    -0.032 A 
HETATM   11  C   UNK     0     120.302 158.824  97.140  0.00  0.00     0.072 A 
HETATM   12  C   UNK     0     119.978 158.666  92.399  0.00  0.00     0.024 A 
HETATM   13  C   UNK     0     118.490 158.141  95.304  0.00  0.00    -0.027 A 
HETATM   14  C   UNK     0     119.304 158.465  98.257  0.00  0.00     0.051 A 
HETATM   15  C   UNK     0     117.179 157.641  93.171  0.00  0.00     0.025 A 
HETATM   16  C   UNK     0     118.968 158.285  91.301  0.00  0.00     0.005 A 
HETATM   17  C   UNK     0     117.493 157.783  96.422  0.00  0.00     0.026 A 
HETATM   18  C   UNK     0     117.900 157.945  97.898  0.00  0.00     0.011 A 
HETATM   19  C   UNK     0     117.569 157.772  91.687  0.00  0.00     0.005 A 
ENDROOT
TORSDOF 0
ENDMDL
MODEL 8
REMARK VINA RESULT:      -6.5     41.144     44.097
REMARK  0 active torsions:
REMARK  status: ('A' for Active; 'I' for Inactive)
ROOT
HETATM    1  O   UNK     0     154.887 117.442 148.543  0.00  0.00    -0.304 OA
HETATM    2  O   UNK     0     153.818 112.164 149.158  0.00  0.00    -0.152 OA
HETATM    3  N   UNK     0     153.304 114.431 150.616  0.00  0.00     0.418 N 
HETATM    4  N   UNK     0     154.552 114.720 148.478  0.00  0.00     0.440 N 
HETATM    5  C   UNK     0     153.608 115.930 150.442  0.00  0.00     0.326 A 
HETATM    6  C   UNK     0     152.896 116.229 151.774  0.00  0.00    -0.009 A 
HETATM    7  C   UNK     0     153.677 117.449 150.687  0.00  0.00     0.031 A 
HETATM    8  C   UNK     0     154.378 116.108 149.121  0.00  0.00     0.424 A 
HETATM    9  C   UNK     0     153.887 113.682 149.403  0.00  0.00     0.663 A 
HETATM   10  C   UNK     0     152.546 117.422 152.682  0.00  0.00    -0.032 A 
HETATM   11  C   UNK     0     154.379 118.363 149.665  0.00  0.00     0.072 A 
HETATM   12  C   UNK     0     152.473 114.804 152.177  0.00  0.00     0.024 A 
HETATM   13  C   UNK     0     153.043 118.053 151.954  0.00  0.00    -0.027 A 
HETATM   14  C   UNK     0     154.447 119.881 149.911  0.00  0.00     0.051 A 
HETATM   15  C   UNK     0     151.773 117.191 153.994  0.00  0.00     0.025 A 
HETATM   16  C   UNK     0     151.701 114.573 153.489  0.00  0.00     0.005 A 
HETATM   17  C   UNK     0     153.112 119.572 152.199  0.00  0.00     0.026 A 
HETATM   18  C   UNK     0     153.814 120.486 151.178  0.00  0.00     0.011 A 
HETATM   19  C   UNK     0     151.350 115.766 154.397  0.00  0.00     0.005 A 
ENDROOT
TORSDOF 0
ENDMDL
MODEL 9
REMARK VINA RESULT:      -6.5     90.461     92.440
REMARK  0 active torsions:
REMARK  status: ('A' for Active; 'I' for Inactive)
ROOT
HETATM    1  O   UNK     0     101.761 156.304  86.898  0.00  0.00    -0.304 OA
HETATM    2  O   UNK     0     105.425 156.121  82.908  0.00  0.00    -0.152 OA
HETATM    3  N   UNK     0     102.946 155.018  83.319  0.00  0.00     0.418 N 
HETATM    4  N   UNK     0     103.852 156.471  85.129  0.00  0.00     0.440 N 
HETATM    5  C   UNK     0     101.905 155.070  84.452  0.00  0.00     0.326 A 
HETATM    6  C   UNK     0     100.980 154.142  83.643  0.00  0.00    -0.009 A 
HETATM    7  C   UNK     0     100.629 154.832  85.280  0.00  0.00     0.031 A 
HETATM    8  C   UNK     0     102.465 155.968  85.570  0.00  0.00     0.424 A 
HETATM    9  C   UNK     0     104.149 155.884  83.736  0.00  0.00     0.663 A 
HETATM   10  C   UNK     0      99.601 153.465  83.753  0.00  0.00    -0.032 A 
HETATM   11  C   UNK     0     100.476 155.492  86.664  0.00  0.00     0.072 A 
HETATM   12  C   UNK     0     101.843 153.930  82.387  0.00  0.00     0.024 A 
HETATM   13  C   UNK     0      99.507 153.936  84.726  0.00  0.00    -0.027 A 
HETATM   14  C   UNK     0      99.199 155.254  87.492  0.00  0.00     0.051 A 
HETATM   15  C   UNK     0      99.086 152.575  82.606  0.00  0.00     0.025 A 
HETATM   16  C   UNK     0     101.329 153.040  81.240  0.00  0.00     0.005 A 
HETATM   17  C   UNK     0      98.231 153.699  85.555  0.00  0.00     0.026 A 
HETATM   18  C   UNK     0      98.077 154.358  86.937  0.00  0.00     0.011 A 
HETATM   19  C   UNK     0      99.951 152.363  81.349  0.00  0.00     0.005 A 
ENDROOT
TORSDOF 0
ENDMDL
MODEL 10
REMARK VINA RESULT:      -6.5     55.221     58.013
REMARK  0 active torsions:
REMARK  status: ('A' for Active; 'I' for Inactive)
ROOT
HETATM    1  O   UNK     0     160.625 152.265  97.656  0.00  0.00    -0.304 OA
HETATM    2  O   UNK     0     160.305 152.993  92.293  0.00  0.00    -0.152 OA
HETATM    3  N   UNK     0     159.147 154.171  94.484  0.00  0.00     0.418 N 
HETATM    4  N   UNK     0     160.747 152.310  94.915  0.00  0.00     0.440 N 
HETATM    5  C   UNK     0     159.238 153.965  96.007  0.00  0.00     0.326 A 
HETATM    6  C   UNK     0     158.228 155.107  96.222  0.00  0.00    -0.009 A 
HETATM    7  C   UNK     0     159.012 154.121  97.522  0.00  0.00     0.031 A 
HETATM    8  C   UNK     0     160.226 152.815  96.273  0.00  0.00     0.424 A 
HETATM    9  C   UNK     0     160.080 153.149  93.809  0.00  0.00     0.663 A 
HETATM   10  C   UNK     0     157.512 155.850  97.366  0.00  0.00    -0.032 A 
HETATM   11  C   UNK     0     159.755 153.203  98.511  0.00  0.00     0.072 A 
HETATM   12  C   UNK     0     157.963 155.509  94.759  0.00  0.00     0.024 A 
HETATM   13  C   UNK     0     158.043 155.196  98.049  0.00  0.00    -0.027 A 
HETATM   14  C   UNK     0     159.529 153.360 100.026  0.00  0.00     0.051 A 
HETATM   15  C   UNK     0     156.532 156.994  97.047  0.00  0.00     0.025 A 
HETATM   16  C   UNK     0     156.982 156.653  94.440  0.00  0.00     0.005 A 
HETATM   17  C   UNK     0     157.817 155.352  99.565  0.00  0.00     0.026 A 
HETATM   18  C   UNK     0     158.560 154.435 100.553  0.00  0.00     0.011 A 
HETATM   19  C   UNK     0     156.267 157.395  95.584  0.00  0.00     0.005 A 
ENDROOT
TORSDOF 0
ENDMDL
