MODEL 1
REMARK VINA RESULT:      -5.9      0.000      0.000
REMARK  2 active torsions:
REMARK  status: ('A' for Active; 'I' for Inactive)
REMARK    1  A    between atoms: C_1  and  C_2 
REMARK    2  A    between atoms: C_1  and  C_5 
ROOT
HETATM    1  C   UNK     0     151.804 136.192 112.405  0.00  0.00     0.035 A 
HETATM    2  C   UNK     0     151.849 135.682 110.952  0.00  0.00     0.120 A 
HETATM    3  N   UNK     0     151.984 136.682 109.789  0.00  0.00    -0.296 NA
HETATM    4  C   UNK     0     151.895 137.701 112.695  0.00  0.00     0.004 A 
HETATM    5  C   UNK     0     152.030 138.702 111.532  0.00  0.00     0.024 A 
HETATM    6  C   UNK     0     152.075 138.192 110.079  0.00  0.00     0.120 A 
HETATM    7  C   UNK     0     152.121 140.211 111.821  0.00  0.00     0.002 C 
ENDROOT
BRANCH   1   8
HETATM    8  C   UNK     0     151.668 135.191 113.568  0.00  0.00     0.100 C 
BRANCH   8   9
HETATM    9  C   UNK     0     151.995 133.649 113.333  0.00  0.00     0.185 C 
HETATM   10  O   UNK     0     153.459 133.311 113.109  0.00  0.00    -0.647 OA
HETATM   11  O   UNK     0     150.896 132.602 113.338  0.00  0.00    -0.647 OA
ENDBRANCH   8   9
ENDBRANCH   1   8
TORSDOF 2
ENDMDL
MODEL 2
REMARK VINA RESULT:      -5.3     23.537     25.212
REMARK  2 active torsions:
REMARK  status: ('A' for Active; 'I' for Inactive)
REMARK    1  A    between atoms: C_1  and  C_2 
REMARK    2  A    between atoms: C_1  and  C_5 
ROOT
HETATM    1  C   UNK     0     160.085 151.567  93.535  0.00  0.00     0.035 A 
HETATM    2  C   UNK     0     161.315 152.309  94.090  0.00  0.00     0.120 A 
HETATM    3  N   UNK     0     161.263 152.948  95.490  0.00  0.00    -0.296 NA
HETATM    4  C   UNK     0     158.802 151.465  94.380  0.00  0.00     0.004 A 
HETATM    5  C   UNK     0     158.749 152.103  95.780  0.00  0.00     0.024 A 
HETATM    6  C   UNK     0     159.979 152.845  96.336  0.00  0.00     0.120 A 
HETATM    7  C   UNK     0     157.466 152.001  96.625  0.00  0.00     0.002 C 
ENDROOT
BRANCH   1   8
HETATM    8  C   UNK     0     160.138 150.929  92.134  0.00  0.00     0.100 C 
BRANCH   8   9
HETATM    9  C   UNK     0     161.143 149.726  91.846  0.00  0.00     0.185 C 
HETATM   10  O   UNK     0     162.591 150.119  91.602  0.00  0.00    -0.647 OA
HETATM   11  O   UNK     0     160.662 148.287  91.820  0.00  0.00    -0.647 OA
ENDBRANCH   8   9
ENDBRANCH   1   8
TORSDOF 2
ENDMDL
MODEL 3
REMARK VINA RESULT:      -5.3     48.500     49.187
REMARK  2 active torsions:
REMARK  status: ('A' for Active; 'I' for Inactive)
REMARK    1  A    between atoms: C_1  and  C_2 
REMARK    2  A    between atoms: C_1  and  C_5 
ROOT
HETATM    1  C   UNK     0     149.274 112.910 155.598  0.00  0.00     0.035 A 
HETATM    2  C   UNK     0     148.049 113.844 155.641  0.00  0.00     0.120 A 
HETATM    3  N   UNK     0     146.701 113.373 155.065  0.00  0.00    -0.296 NA
HETATM    4  C   UNK     0     149.149 111.506 154.979  0.00  0.00     0.004 A 
HETATM    5  C   UNK     0     147.801 111.035 154.403  0.00  0.00     0.024 A 
HETATM    6  C   UNK     0     146.577 111.968 154.446  0.00  0.00     0.120 A 
HETATM    7  C   UNK     0     147.676 109.631 153.784  0.00  0.00     0.002 C 
ENDROOT
BRANCH   1   8
HETATM    8  C   UNK     0     150.622 113.382 156.174  0.00  0.00     0.100 C 
BRANCH   8   9
HETATM    9  C   UNK     0     151.705 114.053 155.218  0.00  0.00     0.185 C 
HETATM   10  O   UNK     0     152.076 115.490 155.545  0.00  0.00    -0.647 OA
HETATM   11  O   UNK     0     152.315 113.287 154.058  0.00  0.00    -0.647 OA
ENDBRANCH   8   9
ENDBRANCH   1   8
TORSDOF 2
ENDMDL
MODEL 4
REMARK VINA RESULT:      -5.3     47.592     48.674
REMARK  2 active torsions:
REMARK  status: ('A' for Active; 'I' for Inactive)
REMARK    1  A    between atoms: C_1  and  C_2 
REMARK    2  A    between atoms: C_1  and  C_5 
ROOT
HETATM    1  C   UNK     0     149.265 113.178 154.588  0.00  0.00     0.035 A 
HETATM    2  C   UNK     0     149.253 111.840 155.351  0.00  0.00     0.120 A 
HETATM    3  N   UNK     0     148.143 110.808 155.080  0.00  0.00    -0.296 NA
HETATM    4  C   UNK     0     148.167 113.483 153.553  0.00  0.00     0.004 A 
HETATM    5  C   UNK     0     147.056 112.451 153.281  0.00  0.00     0.024 A 
HETATM    6  C   UNK     0     147.044 111.114 154.045  0.00  0.00     0.120 A 
HETATM    7  C   UNK     0     145.958 112.757 152.247  0.00  0.00     0.002 C 
ENDROOT
BRANCH   1   8
HETATM    8  C   UNK     0     150.375 114.210 154.860  0.00  0.00     0.100 C 
BRANCH   8   9
HETATM    9  C   UNK     0     150.141 115.369 155.927  0.00  0.00     0.185 C 
HETATM   10  O   UNK     0     151.317 116.304 156.156  0.00  0.00    -0.647 OA
HETATM   11  O   UNK     0     148.818 115.511 156.658  0.00  0.00    -0.647 OA
ENDBRANCH   8   9
ENDBRANCH   1   8
TORSDOF 2
ENDMDL
MODEL 5
REMARK VINA RESULT:      -5.2     37.844     39.088
REMARK  2 active torsions:
REMARK  status: ('A' for Active; 'I' for Inactive)
REMARK    1  A    between atoms: C_1  and  C_2 
REMARK    2  A    between atoms: C_1  and  C_5 
ROOT
HETATM    1  C   UNK     0     140.751 161.938  86.213  0.00  0.00     0.035 A 
HETATM    2  C   UNK     0     140.254 161.993  87.670  0.00  0.00     0.120 A 
HETATM    3  N   UNK     0     138.754 162.167  87.967  0.00  0.00    -0.296 NA
HETATM    4  C   UNK     0     139.746 162.058  85.053  0.00  0.00     0.004 A 
HETATM    5  C   UNK     0     138.245 162.232  85.349  0.00  0.00     0.024 A 
HETATM    6  C   UNK     0     137.748 162.287  86.806  0.00  0.00     0.120 A 
HETATM    7  C   UNK     0     137.240 162.351  84.189  0.00  0.00     0.002 C 
ENDROOT
BRANCH   1   8
HETATM    8  C   UNK     0     142.252 161.764  85.917  0.00  0.00     0.100 C 
BRANCH   8   9
HETATM    9  C   UNK     0     143.052 162.911  85.154  0.00  0.00     0.185 C 
HETATM   10  O   UNK     0     142.437 164.300  85.218  0.00  0.00    -0.647 OA
HETATM   11  O   UNK     0     144.345 162.614  84.417  0.00  0.00    -0.647 OA
ENDBRANCH   8   9
ENDBRANCH   1   8
TORSDOF 2
ENDMDL
MODEL 6
REMARK VINA RESULT:      -5.1     32.511     33.809
REMARK  2 active torsions:
REMARK  status: ('A' for Active; 'I' for Inactive)
REMARK    1  A    between atoms: C_1  and  C_2 
REMARK    2  A    between atoms: C_1  and  C_5 
ROOT
HETATM    1  C   UNK     0     147.023 153.486  84.315  0.00  0.00     0.035 A 
HETATM    2  C   UNK     0     148.197 154.371  84.775  0.00  0.00     0.120 A 
HETATM    3  N   UNK     0     149.313 154.748  83.784  0.00  0.00    -0.296 NA
HETATM    4  C   UNK     0     146.966 152.979  82.863  0.00  0.00     0.004 A 
HETATM    5  C   UNK     0     148.082 153.355  81.870  0.00  0.00     0.024 A 
HETATM    6  C   UNK     0     149.255 154.240  82.331  0.00  0.00     0.120 A 
HETATM    7  C   UNK     0     148.024 152.848  80.418  0.00  0.00     0.002 C 
ENDROOT
BRANCH   1   8
HETATM    8  C   UNK     0     145.908 153.109  85.308  0.00  0.00     0.100 C 
BRANCH   8   9
HETATM    9  C   UNK     0     144.811 154.189  85.720  0.00  0.00     0.185 C 
HETATM   10  O   UNK     0     145.191 155.113  86.865  0.00  0.00    -0.647 OA
HETATM   11  O   UNK     0     143.477 154.271  84.999  0.00  0.00    -0.647 OA
ENDBRANCH   8   9
ENDBRANCH   1   8
TORSDOF 2
ENDMDL
MODEL 7
REMARK VINA RESULT:      -5.1      3.592      5.050
REMARK  2 active torsions:
REMARK  status: ('A' for Active; 'I' for Inactive)
REMARK    1  A    between atoms: C_1  and  C_2 
REMARK    2  A    between atoms: C_1  and  C_5 
ROOT
HETATM    1  C   UNK     0     153.044 137.226 111.307  0.00  0.00     0.035 A 
HETATM    2  C   UNK     0     154.140 136.298 110.750  0.00  0.00     0.120 A 
HETATM    3  N   UNK     0     154.144 134.803 111.116  0.00  0.00    -0.296 NA
HETATM    4  C   UNK     0     151.951 136.657 112.230  0.00  0.00     0.004 A 
HETATM    5  C   UNK     0     151.954 135.161 112.597  0.00  0.00     0.024 A 
HETATM    6  C   UNK     0     153.050 134.234 112.039  0.00  0.00     0.120 A 
HETATM    7  C   UNK     0     150.861 134.592 113.520  0.00  0.00     0.002 C 
ENDROOT
BRANCH   1   8
HETATM    8  C   UNK     0     153.041 138.722 110.940  0.00  0.00     0.100 C 
BRANCH   8   9
HETATM    9  C   UNK     0     151.807 139.345 110.148  0.00  0.00     0.185 C 
HETATM   10  O   UNK     0     150.474 139.323 110.877  0.00  0.00    -0.647 OA
HETATM   11  O   UNK     0     151.976 139.918 108.752  0.00  0.00    -0.647 OA
ENDBRANCH   8   9
ENDBRANCH   1   8
TORSDOF 2
ENDMDL
MODEL 8
REMARK VINA RESULT:      -5.0     51.587     52.461
REMARK  2 active torsions:
REMARK  status: ('A' for Active; 'I' for Inactive)
REMARK    1  A    between atoms: C_1  and  C_2 
REMARK    2  A    between atoms: C_1  and  C_5 
ROOT
HETATM    1  C   UNK     0     105.581 154.660  96.739  0.00  0.00     0.035 A 
HETATM    2  C   UNK     0     105.294 155.529  95.501  0.00  0.00     0.120 A 
HETATM    3  N   UNK     0     106.331 155.620  94.366  0.00  0.00    -0.296 NA
HETATM    4  C   UNK     0     106.905 153.881  96.843  0.00  0.00     0.004 A 
HETATM    5  C   UNK     0     107.942 153.971  95.708  0.00  0.00     0.024 A 
HETATM    6  C   UNK     0     107.655 154.840  94.470  0.00  0.00     0.120 A 
HETATM    7  C   UNK     0     109.266 153.192  95.812  0.00  0.00     0.002 C 
ENDROOT
BRANCH   1   8
HETATM    8  C   UNK     0     104.543 154.570  97.874  0.00  0.00     0.100 C 
BRANCH   8   9
HETATM    9  C   UNK     0     103.313 155.581  97.909  0.00  0.00     0.185 C 
HETATM   10  O   UNK     0     103.580 156.923  98.571  0.00  0.00    -0.647 OA
HETATM   11  O   UNK     0     101.968 155.207  97.314  0.00  0.00    -0.647 OA
ENDBRANCH   8   9
ENDBRANCH   1   8
TORSDOF 2
ENDMDL
MODEL 9
REMARK VINA RESULT:      -4.9     27.087     28.796
REMARK  2 active torsions:
REMARK  status: ('A' for Active; 'I' for Inactive)
REMARK    1  A    between atoms: C_1  and  C_2 
REMARK    2  A    between atoms: C_1  and  C_5 
ROOT
HETATM    1  C   UNK     0     161.559 151.059  89.459  0.00  0.00     0.035 A 
HETATM    2  C   UNK     0     161.105 151.446  88.039  0.00  0.00     0.120 A 
HETATM    3  N   UNK     0     161.942 152.435  87.206  0.00  0.00    -0.296 NA
HETATM    4  C   UNK     0     162.849 151.661  90.046  0.00  0.00     0.004 A 
HETATM    5  C   UNK     0     163.686 152.650  89.213  0.00  0.00     0.024 A 
HETATM    6  C   UNK     0     163.232 153.037  87.793  0.00  0.00     0.120 A 
HETATM    7  C   UNK     0     164.975 153.251  89.800  0.00  0.00     0.002 C 
ENDROOT
BRANCH   1   8
HETATM    8  C   UNK     0     160.722 150.070  90.292  0.00  0.00     0.100 C 
BRANCH   8   9
HETATM    9  C   UNK     0     161.139 149.742  91.794  0.00  0.00     0.185 C 
HETATM   10  O   UNK     0     160.362 150.480  92.871  0.00  0.00    -0.647 OA
HETATM   11  O   UNK     0     162.246 148.751  92.106  0.00  0.00    -0.647 OA
ENDBRANCH   8   9
ENDBRANCH   1   8
TORSDOF 2
ENDMDL
MODEL 10
REMARK VINA RESULT:      -4.9     18.485     20.122
REMARK  2 active torsions:
REMARK  status: ('A' for Active; 'I' for Inactive)
REMARK    1  A    between atoms: C_1  and  C_2 
REMARK    2  A    between atoms: C_1  and  C_5 
ROOT
HETATM    1  C   UNK     0     156.290 119.148 102.042  0.00  0.00     0.035 A 
HETATM    2  C   UNK     0     155.699 117.726 102.087  0.00  0.00     0.120 A 
HETATM    3  N   UNK     0     154.380 117.464 102.838  0.00  0.00    -0.296 NA
HETATM    4  C   UNK     0     155.562 120.306 102.747  0.00  0.00     0.004 A 
HETATM    5  C   UNK     0     154.243 120.045 103.498  0.00  0.00     0.024 A 
HETATM    6  C   UNK     0     153.652 118.623 103.543  0.00  0.00     0.120 A 
HETATM    7  C   UNK     0     153.516 121.203 104.203  0.00  0.00     0.002 C 
ENDROOT
BRANCH   1   8
HETATM    8  C   UNK     0     157.609 119.409 101.291  0.00  0.00     0.100 C 
BRANCH   8   9
HETATM    9  C   UNK     0     158.971 119.564 102.105  0.00  0.00     0.185 C 
HETATM   10  O   UNK     0     158.920 119.144 103.564  0.00  0.00    -0.647 OA
HETATM   11  O   UNK     0     160.227 120.101 101.443  0.00  0.00    -0.647 OA
ENDBRANCH   8   9
ENDBRANCH   1   8
TORSDOF 2
ENDMDL
