MODEL 1
REMARK VINA RESULT:     -10.5      0.000      0.000
REMARK  3 active torsions:
REMARK  status: ('A' for Active; 'I' for Inactive)
REMARK    1  A    between atoms: C_16  and  C_21 
REMARK    2  A    between atoms: C_24  and  O_62 
REMARK    3  A    between atoms: C_34  and  O_35 
ROOT
HETATM    1  C   UNK     0     123.100 124.770 123.501  0.00  0.00     0.018 A 
HETATM    2  C   UNK     0     123.382 124.465 122.018  0.00  0.00     0.166 A 
HETATM    3  C   UNK     0     123.275 126.203 124.039  0.00  0.00     0.004 A 
HETATM    4  N   UNK     0     123.838 125.593 121.073  0.00  0.00    -0.347 N 
HETATM    5  C   UNK     0     123.730 127.330 123.094  0.00  0.00     0.024 A 
HETATM    6  C   UNK     0     124.012 127.024 121.611  0.00  0.00     0.099 A 
HETATM    7  C   UNK     0     123.207 123.032 121.481  0.00  0.00     0.281 C 
HETATM    8  O   UNK     0     123.489 122.727 119.998  0.00  0.00    -0.189 OA
HETATM    9  O   UNK     0     123.944 123.854 119.051  0.00  0.00    -0.196 OA
HETATM   10  C   UNK     0     124.119 125.286 119.590  0.00  0.00     0.265 A 
HETATM   11  C   UNK     0     124.575 126.414 118.644  0.00  0.00     0.231 A 
HETATM   12  O   UNK     0     124.749 127.846 119.182  0.00  0.00    -0.216 OA
HETATM   13  C   UNK     0     122.577 120.472 121.888  0.00  0.00     0.175 A 
HETATM   14  C   UNK     0     122.858 120.167 120.405  0.00  0.00     0.075 A 
HETATM   15  O   UNK     0     122.751 121.905 122.426  0.00  0.00    -0.336 OA
HETATM   16  C   UNK     0     121.947 117.913 122.296  0.00  0.00     0.065 A 
HETATM   17  O   UNK     0     122.228 117.607 120.813  0.00  0.00    -0.317 OA
HETATM   18  C   UNK     0     122.121 119.346 122.833  0.00  0.00    -0.008 A 
HETATM   19  C   UNK     0     122.684 118.735 119.866  0.00  0.00     0.072 A 
HETATM   20  C   UNK     0     121.840 119.650 124.317  0.00  0.00     0.030 C 
HETATM   21  O   UNK     0     124.682 124.676 116.623  0.00  0.00    -0.365 OA
HETATM   22  C   UNK     0     124.856 126.108 117.162  0.00  0.00     0.149 A 
HETATM   23  C   UNK     0     124.963 124.371 115.141  0.00  0.00     0.151 A 
HETATM   24  C   UNK     0     125.418 125.498 114.196  0.00  0.00     0.021 A 
HETATM   25  C   UNK     0     125.311 127.236 116.217  0.00  0.00     0.030 A 
HETATM   26  C   UNK     0     125.593 126.930 114.734  0.00  0.00     0.004 A 
HETATM   27  C   UNK     0     124.788 122.938 114.603  0.00  0.00     0.071 C 
HETATM   28  C   UNK     0     125.070 122.633 113.119  0.00  0.00     0.066 C 
HETATM   29  C   UNK     0     124.439 120.073 113.527  0.00  0.00     0.028 C 
HETATM   30  C   UNK     0     124.895 121.200 112.582  0.00  0.00    -0.025 C 
HETATM   31  C   UNK     0     125.176 120.895 111.099  0.00  0.00     0.028 C 
HETATM   32  C   UNK     0     125.486 128.668 116.755  0.00  0.00     0.003 C 
HETATM   33  C   UNK     0     122.965 118.429 118.383  0.00  0.00    -0.021 C 
HETATM   34  C   UNK     0     123.421 119.556 117.438  0.00  0.00     0.028 C 
HETATM   35  C   UNK     0     122.791 116.997 117.846  0.00  0.00     0.048 C 
HETATM   36  C   UNK     0     123.072 116.691 116.363  0.00  0.00    -0.012 C 
HETATM   37  C   UNK     0     123.528 117.819 115.418  0.00  0.00     0.029 C 
HETATM   38  C   UNK     0     122.898 115.258 115.825  0.00  0.00     0.148 C 
HETATM   39  C   UNK     0     123.179 114.953 114.342  0.00  0.00     0.144 A 
HETATM   40  O   UNK     0     123.635 116.081 113.397  0.00  0.00    -0.322 OA
HETATM   41  O   UNK     0     122.442 114.131 116.770  0.00  0.00    -0.189 OA
HETATM   42  C   UNK     0     123.005 113.520 113.804  0.00  0.00     0.151 A 
HETATM   43  C   UNK     0     125.012 119.466 110.524  0.00  0.00     0.030 C 
HETATM   44  C   UNK     0     125.338 119.111 108.801  0.00  0.00    -0.026 C 
HETATM   45  C   UNK     0     123.286 113.215 112.321  0.00  0.00     0.004 A 
HETATM   46  C   UNK     0     123.747 114.390 111.397  0.00  0.00     0.002 A 
HETATM   47  C   UNK     0     123.916 115.775 111.914  0.00  0.00     0.175 A 
HETATM   48  O   UNK     0     122.549 112.394 114.750  0.00  0.00    -0.188 OA
HETATM   49  C   UNK     0     125.173 117.792 108.325  0.00  0.00    -0.005 C 
HETATM   50  C   UNK     0     124.689 116.695 109.419  0.00  0.00    -0.005 C 
HETATM   51  C   UNK     0     124.288 115.066 109.679  0.00  0.00    -0.024 C 
HETATM   52  C   UNK     0     123.100 111.785 111.834  0.00  0.00     0.033 C 
HETATM   53  O   UNK     0     124.423 125.070 118.089  0.00  0.00     0.000 OA
HETATM   54  C   UNK     0     124.360 114.089 108.490  0.00  0.00     0.031 C 
ENDROOT
BRANCH  16  55
HETATM   55  C   UNK     0     121.491 116.785 123.241  0.00  0.00     0.072 A 
HETATM   56  C   UNK     0     119.989 116.523 123.458  0.00  0.00     0.007 A 
HETATM   57  C   UNK     0     119.533 115.396 124.404  0.00  0.00     0.056 A 
HETATM   58  C   UNK     0     120.580 114.530 125.132  0.00  0.00     0.127 A 
HETATM   59  C   UNK     0     122.081 114.793 124.914  0.00  0.00     0.093 A 
HETATM   60  O   UNK     0     120.124 113.404 126.076  0.00  0.00    -0.193 OA
HETATM   61  C   UNK     0     122.537 115.920 123.969  0.00  0.00     0.053 A 
BRANCH  59  62
HETATM   62  O   UNK     0     123.127 113.929 125.642  0.00  0.00    -0.331 OA
HETATM   63  C   UNK     0     123.381 114.131 127.147  0.00  0.00     0.181 C 
ENDBRANCH  59  62
ENDBRANCH  16  55
BRANCH  28  64
HETATM   64  O   UNK     0     125.525 123.760 112.174  0.00  0.00    -0.333 OA
HETATM   65  C   UNK     0     126.920 123.704 111.526  0.00  0.00     0.181 C 
ENDBRANCH  28  64
TORSDOF 3
ENDMDL
MODEL 2
REMARK VINA RESULT:     -10.2      3.634      3.688
REMARK  3 active torsions:
REMARK  status: ('A' for Active; 'I' for Inactive)
REMARK    1  A    between atoms: C_16  and  C_21 
REMARK    2  A    between atoms: C_24  and  O_62 
REMARK    3  A    between atoms: C_34  and  O_35 
ROOT
HETATM    1  C   UNK     0     124.263 124.335 123.357  0.00  0.00     0.018 A 
HETATM    2  C   UNK     0     123.809 124.235 121.889  0.00  0.00     0.166 A 
HETATM    3  C   UNK     0     124.967 125.609 123.860  0.00  0.00     0.004 A 
HETATM    4  N   UNK     0     124.059 125.410 120.924  0.00  0.00    -0.347 N 
HETATM    5  C   UNK     0     125.217 126.782 122.896  0.00  0.00     0.024 A 
HETATM    6  C   UNK     0     124.763 126.683 121.427  0.00  0.00     0.099 A 
HETATM    7  C   UNK     0     123.105 122.961 121.385  0.00  0.00     0.281 C 
HETATM    8  O   UNK     0     122.651 122.862 119.917  0.00  0.00    -0.189 OA
HETATM    9  O   UNK     0     122.901 124.036 118.951  0.00  0.00    -0.196 OA
HETATM   10  C   UNK     0     123.605 125.309 119.456  0.00  0.00     0.265 A 
HETATM   11  C   UNK     0     123.855 126.484 118.490  0.00  0.00     0.231 A 
HETATM   12  O   UNK     0     124.559 127.758 118.994  0.00  0.00    -0.216 OA
HETATM   13  C   UNK     0     122.151 120.513 121.846  0.00  0.00     0.175 A 
HETATM   14  C   UNK     0     121.696 120.413 120.378  0.00  0.00     0.075 A 
HETATM   15  O   UNK     0     122.855 121.787 122.350  0.00  0.00    -0.336 OA
HETATM   16  C   UNK     0     121.196 118.066 122.307  0.00  0.00     0.065 A 
HETATM   17  O   UNK     0     120.742 117.966 120.839  0.00  0.00    -0.317 OA
HETATM   18  C   UNK     0     121.901 119.340 122.811  0.00  0.00    -0.008 A 
HETATM   19  C   UNK     0     120.992 119.140 119.874  0.00  0.00     0.072 A 
HETATM   20  C   UNK     0     122.354 119.438 124.279  0.00  0.00     0.030 C 
HETATM   21  O   UNK     0     122.697 125.111 116.518  0.00  0.00    -0.365 OA
HETATM   22  C   UNK     0     123.401 126.384 117.023  0.00  0.00     0.149 A 
HETATM   23  C   UNK     0     122.243 125.011 115.051  0.00  0.00     0.151 A 
HETATM   24  C   UNK     0     122.493 126.185 114.087  0.00  0.00     0.021 A 
HETATM   25  C   UNK     0     123.651 127.558 116.058  0.00  0.00     0.030 A 
HETATM   26  C   UNK     0     123.197 127.459 114.590  0.00  0.00     0.004 A 
HETATM   27  C   UNK     0     121.539 123.737 114.548  0.00  0.00     0.071 C 
HETATM   28  C   UNK     0     121.085 123.638 113.079  0.00  0.00     0.066 C 
HETATM   29  C   UNK     0     120.130 121.189 113.540  0.00  0.00     0.028 C 
HETATM   30  C   UNK     0     120.380 122.364 112.575  0.00  0.00    -0.025 C 
HETATM   31  C   UNK     0     119.926 122.264 111.107  0.00  0.00     0.028 C 
HETATM   32  C   UNK     0     124.355 128.832 116.562  0.00  0.00     0.003 C 
HETATM   33  C   UNK     0     120.538 119.041 118.405  0.00  0.00    -0.021 C 
HETATM   34  C   UNK     0     120.788 120.214 117.441  0.00  0.00     0.028 C 
HETATM   35  C   UNK     0     119.834 117.767 117.902  0.00  0.00     0.048 C 
HETATM   36  C   UNK     0     119.380 117.667 116.434  0.00  0.00    -0.012 C 
HETATM   37  C   UNK     0     119.630 118.842 115.469  0.00  0.00     0.029 C 
HETATM   38  C   UNK     0     118.676 116.393 115.930  0.00  0.00     0.148 C 
HETATM   39  C   UNK     0     118.222 116.294 114.462  0.00  0.00     0.144 A 
HETATM   40  O   UNK     0     118.472 117.468 113.497  0.00  0.00    -0.322 OA
HETATM   41  O   UNK     0     118.426 115.219 116.895  0.00  0.00    -0.189 OA
HETATM   42  C   UNK     0     117.517 115.020 113.959  0.00  0.00     0.151 A 
HETATM   43  C   UNK     0     119.215 120.999 110.566  0.00  0.00     0.030 C 
HETATM   44  C   UNK     0     118.688 120.883 108.861  0.00  0.00    -0.026 C 
HETATM   45  C   UNK     0     117.063 114.920 112.490  0.00  0.00     0.004 A 
HETATM   46  C   UNK     0     117.338 116.137 111.546  0.00  0.00     0.002 A 
HETATM   47  C   UNK     0     118.018 117.368 112.029  0.00  0.00     0.175 A 
HETATM   48  O   UNK     0     117.268 113.846 114.923  0.00  0.00    -0.188 OA
HETATM   49  C   UNK     0     118.044 119.708 108.416  0.00  0.00    -0.005 C 
HETATM   50  C   UNK     0     117.839 118.543 109.528  0.00  0.00    -0.005 C 
HETATM   51  C   UNK     0     117.232 116.985 109.822  0.00  0.00    -0.024 C 
HETATM   52  C   UNK     0     116.371 113.642 112.037  0.00  0.00     0.033 C 
HETATM   53  O   UNK     0     123.183 125.296 117.968  0.00  0.00     0.000 OA
HETATM   54  C   UNK     0     116.569 116.220 108.661  0.00  0.00     0.031 C 
ENDROOT
BRANCH  16  55
HETATM   55  C   UNK     0     120.946 116.891 123.272  0.00  0.00     0.072 A 
HETATM   56  C   UNK     0     119.531 116.634 123.821  0.00  0.00     0.007 A 
HETATM   57  C   UNK     0     119.280 115.459 124.786  0.00  0.00     0.056 A 
HETATM   58  C   UNK     0     120.446 114.542 125.201  0.00  0.00     0.127 A 
HETATM   59  C   UNK     0     121.862 114.800 124.653  0.00  0.00     0.093 A 
HETATM   60  O   UNK     0     120.195 113.369 126.166  0.00  0.00    -0.193 OA
HETATM   61  C   UNK     0     122.112 115.974 123.688  0.00  0.00     0.053 A 
BRANCH  59  62
HETATM   62  O   UNK     0     123.027 113.883 125.068  0.00  0.00    -0.331 OA
HETATM   63  C   UNK     0     123.714 114.082 126.432  0.00  0.00     0.181 C 
ENDBRANCH  59  62
ENDBRANCH  16  55
BRANCH  28  64
HETATM   64  O   UNK     0     121.335 124.812 112.114  0.00  0.00    -0.333 OA
HETATM   65  C   UNK     0     122.202 124.606 110.859  0.00  0.00     0.181 C 
ENDBRANCH  28  64
TORSDOF 3
ENDMDL
MODEL 3
REMARK VINA RESULT:      -9.6     39.073     44.005
REMARK  3 active torsions:
REMARK  status: ('A' for Active; 'I' for Inactive)
REMARK    1  A    between atoms: C_16  and  C_21 
REMARK    2  A    between atoms: C_24  and  O_62 
REMARK    3  A    between atoms: C_34  and  O_35 
ROOT
HETATM    1  C   UNK     0     146.391  92.406 144.380  0.00  0.00     0.018 A 
HETATM    2  C   UNK     0     145.362  93.396 144.956  0.00  0.00     0.166 A 
HETATM    3  C   UNK     0     147.702  92.931 143.764  0.00  0.00     0.004 A 
HETATM    4  N   UNK     0     145.642  94.910 144.915  0.00  0.00    -0.347 N 
HETATM    5  C   UNK     0     147.982  94.444 143.724  0.00  0.00     0.024 A 
HETATM    6  C   UNK     0     146.953  95.434 144.299  0.00  0.00     0.099 A 
HETATM    7  C   UNK     0     144.051  92.872 145.572  0.00  0.00     0.281 C 
HETATM    8  O   UNK     0     143.021  93.862 146.147  0.00  0.00    -0.189 OA
HETATM    9  O   UNK     0     143.301  95.376 146.107  0.00  0.00    -0.196 OA
HETATM   10  C   UNK     0     144.612  95.899 145.491  0.00  0.00     0.265 A 
HETATM   11  C   UNK     0     144.892  97.414 145.451  0.00  0.00     0.231 A 
HETATM   12  O   UNK     0     146.203  97.938 144.835  0.00  0.00    -0.216 OA
HETATM   13  C   UNK     0     142.459  90.834 146.228  0.00  0.00     0.175 A 
HETATM   14  C   UNK     0     141.429  91.824 146.804  0.00  0.00     0.075 A 
HETATM   15  O   UNK     0     143.770  91.358 145.612  0.00  0.00    -0.336 OA
HETATM   16  C   UNK     0     140.868  88.797 146.885  0.00  0.00     0.065 A 
HETATM   17  O   UNK     0     139.838  89.786 147.460  0.00  0.00    -0.317 OA
HETATM   18  C   UNK     0     142.179  89.321 146.269  0.00  0.00    -0.008 A 
HETATM   19  C   UNK     0     140.118  91.301 147.420  0.00  0.00     0.072 A 
HETATM   20  C   UNK     0     143.208  88.330 145.693  0.00  0.00     0.030 C 
HETATM   21  O   UNK     0     142.552  97.880 146.643  0.00  0.00    -0.365 OA
HETATM   22  C   UNK     0     143.863  98.403 146.026  0.00  0.00     0.149 A 
HETATM   23  C   UNK     0     141.523  98.869 147.218  0.00  0.00     0.151 A 
HETATM   24  C   UNK     0     141.803 100.382 147.178  0.00  0.00     0.021 A 
HETATM   25  C   UNK     0     144.144  99.917 145.986  0.00  0.00     0.030 A 
HETATM   26  C   UNK     0     143.114 100.906 146.562  0.00  0.00     0.004 A 
HETATM   27  C   UNK     0     140.212  98.345 147.834  0.00  0.00     0.071 C 
HETATM   28  C   UNK     0     139.182  99.335 148.410  0.00  0.00     0.066 C 
HETATM   29  C   UNK     0     137.590  97.297 149.067  0.00  0.00     0.028 C 
HETATM   30  C   UNK     0     137.871  98.811 149.026  0.00  0.00    -0.025 C 
HETATM   31  C   UNK     0     136.841  99.801 149.602  0.00  0.00     0.028 C 
HETATM   32  C   UNK     0     145.454 100.440 145.370  0.00  0.00     0.003 C 
HETATM   33  C   UNK     0     139.089  92.291 147.996  0.00  0.00    -0.021 C 
HETATM   34  C   UNK     0     139.369  93.804 147.956  0.00  0.00     0.028 C 
HETATM   35  C   UNK     0     137.778  91.766 148.612  0.00  0.00     0.048 C 
HETATM   36  C   UNK     0     136.748  92.756 149.188  0.00  0.00    -0.012 C 
HETATM   37  C   UNK     0     137.029  94.270 149.147  0.00  0.00     0.029 C 
HETATM   38  C   UNK     0     135.437  92.232 149.804  0.00  0.00     0.148 C 
HETATM   39  C   UNK     0     134.407  93.222 150.380  0.00  0.00     0.144 A 
HETATM   40  O   UNK     0     134.688  94.735 150.339  0.00  0.00    -0.322 OA
HETATM   41  O   UNK     0     135.156  90.718 149.844  0.00  0.00    -0.189 OA
HETATM   42  C   UNK     0     133.097  92.697 150.996  0.00  0.00     0.151 A 
HETATM   43  C   UNK     0     135.513  99.309 150.229  0.00  0.00     0.030 C 
HETATM   44  C   UNK     0     134.316 100.459 150.898  0.00  0.00    -0.026 C 
HETATM   45  C   UNK     0     132.067  93.687 151.571  0.00  0.00     0.004 A 
HETATM   46  C   UNK     0     132.393  95.216 151.509  0.00  0.00     0.002 A 
HETATM   47  C   UNK     0     133.658  95.725 150.915  0.00  0.00     0.175 A 
HETATM   48  O   UNK     0     132.816  91.184 151.036  0.00  0.00    -0.188 OA
HETATM   49  C   UNK     0     133.120  99.961 151.459  0.00  0.00    -0.005 C 
HETATM   50  C   UNK     0     132.942  98.347 151.442  0.00  0.00    -0.005 C 
HETATM   51  C   UNK     0     131.930  97.051 151.859  0.00  0.00    -0.024 C 
HETATM   52  C   UNK     0     130.785  93.124 152.171  0.00  0.00     0.033 C 
HETATM   53  O   UNK     0     143.635  96.963 146.045  0.00  0.00     0.000 OA
HETATM   54  C   UNK     0     130.585  97.355 152.547  0.00  0.00     0.031 C 
ENDROOT
BRANCH  16  55
HETATM   55  C   UNK     0     140.587  87.283 146.925  0.00  0.00     0.072 A 
HETATM   56  C   UNK     0     140.833  86.420 145.673  0.00  0.00     0.007 A 
HETATM   57  C   UNK     0     140.552  84.906 145.714  0.00  0.00     0.056 A 
HETATM   58  C   UNK     0     140.026  84.255 147.006  0.00  0.00     0.127 A 
HETATM   59  C   UNK     0     139.780  85.117 148.258  0.00  0.00     0.093 A 
HETATM   60  O   UNK     0     139.745  82.742 147.046  0.00  0.00    -0.193 OA
HETATM   61  C   UNK     0     140.061  86.631 148.218  0.00  0.00     0.053 A 
BRANCH  59  62
HETATM   62  O   UNK     0     139.253  84.466 149.550  0.00  0.00    -0.331 OA
HETATM   63  C   UNK     0     138.905  85.343 150.767  0.00  0.00     0.181 C 
ENDBRANCH  59  62
ENDBRANCH  16  55
BRANCH  28  64
HETATM   64  O   UNK     0     139.462 100.849 148.370  0.00  0.00    -0.333 OA
HETATM   65  C   UNK     0     138.559 101.777 147.539  0.00  0.00     0.181 C 
ENDBRANCH  28  64
TORSDOF 3
ENDMDL
MODEL 4
REMARK VINA RESULT:      -9.5     54.777     60.826
REMARK  3 active torsions:
REMARK  status: ('A' for Active; 'I' for Inactive)
REMARK    1  A    between atoms: C_16  and  C_21 
REMARK    2  A    between atoms: C_24  and  O_62 
REMARK    3  A    between atoms: C_34  and  O_35 
ROOT
HETATM    1  C   UNK     0     146.289 149.698  73.522  0.00  0.00     0.018 A 
HETATM    2  C   UNK     0     146.238 151.224  73.719  0.00  0.00     0.166 A 
HETATM    3  C   UNK     0     145.435 149.034  72.426  0.00  0.00     0.004 A 
HETATM    4  N   UNK     0     145.332 152.087  72.820  0.00  0.00    -0.347 N 
HETATM    5  C   UNK     0     144.530 149.896  71.528  0.00  0.00     0.024 A 
HETATM    6  C   UNK     0     144.478 151.422  71.725  0.00  0.00     0.099 A 
HETATM    7  C   UNK     0     147.092 151.889  74.816  0.00  0.00     0.281 C 
HETATM    8  O   UNK     0     147.040 153.415  75.013  0.00  0.00    -0.189 OA
HETATM    9  O   UNK     0     146.134 154.278  74.114  0.00  0.00    -0.196 OA
HETATM   10  C   UNK     0     145.281 153.613  73.018  0.00  0.00     0.265 A 
HETATM   11  C   UNK     0     144.375 154.476  72.119  0.00  0.00     0.231 A 
HETATM   12  O   UNK     0     143.521 153.812  71.023  0.00  0.00    -0.216 OA
HETATM   13  C   UNK     0     148.852 151.691  76.811  0.00  0.00     0.175 A 
HETATM   14  C   UNK     0     148.800 153.217  77.008  0.00  0.00     0.075 A 
HETATM   15  O   UNK     0     147.997 151.026  75.715  0.00  0.00    -0.336 OA
HETATM   16  C   UNK     0     150.611 151.493  78.806  0.00  0.00     0.065 A 
HETATM   17  O   UNK     0     150.559 153.019  79.003  0.00  0.00    -0.317 OA
HETATM   18  C   UNK     0     149.757 150.828  77.710  0.00  0.00    -0.008 A 
HETATM   19  C   UNK     0     149.653 153.882  78.104  0.00  0.00     0.072 A 
HETATM   20  C   UNK     0     149.809 149.302  77.513  0.00  0.00     0.030 C 
HETATM   21  O   UNK     0     145.176 156.667  73.412  0.00  0.00    -0.365 OA
HETATM   22  C   UNK     0     144.323 156.002  72.316  0.00  0.00     0.149 A 
HETATM   23  C   UNK     0     145.124 158.192  73.609  0.00  0.00     0.151 A 
HETATM   24  C   UNK     0     144.219 159.055  72.710  0.00  0.00     0.021 A 
HETATM   25  C   UNK     0     143.417 156.864  71.417  0.00  0.00     0.030 A 
HETATM   26  C   UNK     0     143.365 158.390  71.614  0.00  0.00     0.004 A 
HETATM   27  C   UNK     0     145.979 158.857  74.705  0.00  0.00     0.071 C 
HETATM   28  C   UNK     0     145.927 160.384  74.902  0.00  0.00     0.066 C 
HETATM   29  C   UNK     0     147.687 160.186  76.898  0.00  0.00     0.028 C 
HETATM   30  C   UNK     0     146.781 161.048  75.999  0.00  0.00    -0.025 C 
HETATM   31  C   UNK     0     146.729 162.575  76.196  0.00  0.00     0.028 C 
HETATM   32  C   UNK     0     142.564 156.200  70.321  0.00  0.00     0.003 C 
HETATM   33  C   UNK     0     149.601 155.409  78.301  0.00  0.00    -0.021 C 
HETATM   34  C   UNK     0     148.696 156.271  77.403  0.00  0.00     0.028 C 
HETATM   35  C   UNK     0     150.455 156.073  79.397  0.00  0.00     0.048 C 
HETATM   36  C   UNK     0     150.403 157.600  79.595  0.00  0.00    -0.012 C 
HETATM   37  C   UNK     0     149.498 158.462  78.695  0.00  0.00     0.029 C 
HETATM   38  C   UNK     0     151.258 158.264  80.691  0.00  0.00     0.148 C 
HETATM   39  C   UNK     0     151.206 159.790  80.888  0.00  0.00     0.144 A 
HETATM   40  O   UNK     0     150.300 160.652  79.989  0.00  0.00    -0.322 OA
HETATM   41  O   UNK     0     152.163 157.402  81.590  0.00  0.00    -0.189 OA
HETATM   42  C   UNK     0     152.060 160.454  81.984  0.00  0.00     0.151 A 
HETATM   43  C   UNK     0     147.574 163.277  77.288  0.00  0.00     0.030 C 
HETATM   44  C   UNK     0     147.514 165.050  77.517  0.00  0.00    -0.026 C 
HETATM   45  C   UNK     0     152.008 161.981  82.181  0.00  0.00     0.004 A 
HETATM   46  C   UNK     0     151.074 162.818  81.246  0.00  0.00     0.002 A 
HETATM   47  C   UNK     0     150.248 162.179  80.186  0.00  0.00     0.175 A 
HETATM   48  O   UNK     0     152.965 159.592  82.883  0.00  0.00    -0.188 OA
HETATM   49  C   UNK     0     148.303 165.642  78.527  0.00  0.00    -0.005 C 
HETATM   50  C   UNK     0     149.215 164.626  79.407  0.00  0.00    -0.005 C 
HETATM   51  C   UNK     0     150.334 164.500  80.676  0.00  0.00    -0.024 C 
HETATM   52  C   UNK     0     152.869 162.594  83.277  0.00  0.00     0.033 C 
HETATM   53  O   UNK     0     145.167 155.150  73.145  0.00  0.00     0.000 OA
HETATM   54  C   UNK     0     150.776 165.786  81.402  0.00  0.00     0.031 C 
ENDROOT
BRANCH  16  55
HETATM   55  C   UNK     0     151.517 150.630  79.705  0.00  0.00     0.072 A 
HETATM   56  C   UNK     0     150.899 149.544  80.604  0.00  0.00     0.007 A 
HETATM   57  C   UNK     0     151.805 148.682  81.503  0.00  0.00     0.056 A 
HETATM   58  C   UNK     0     153.328 148.906  81.503  0.00  0.00     0.127 A 
HETATM   59  C   UNK     0     153.946 149.993  80.604  0.00  0.00     0.093 A 
HETATM   60  O   UNK     0     154.233 148.044  82.402  0.00  0.00    -0.193 OA
HETATM   61  C   UNK     0     153.040 150.855  79.705  0.00  0.00     0.053 A 
BRANCH  59  62
HETATM   62  O   UNK     0     155.469 150.217  80.603  0.00  0.00    -0.331 OA
HETATM   63  C   UNK     0     156.391 149.245  79.844  0.00  0.00     0.181 C 
ENDBRANCH  59  62
ENDBRANCH  16  55
BRANCH  28  64
HETATM   64  O   UNK     0     145.021 161.246  74.003  0.00  0.00    -0.333 OA
HETATM   65  C   UNK     0     145.646 162.191  72.961  0.00  0.00     0.181 C 
ENDBRANCH  28  64
TORSDOF 3
ENDMDL
MODEL 5
REMARK VINA RESULT:      -9.5     34.669     38.997
REMARK  3 active torsions:
REMARK  status: ('A' for Active; 'I' for Inactive)
REMARK    1  A    between atoms: C_16  and  C_21 
REMARK    2  A    between atoms: C_24  and  O_62 
REMARK    3  A    between atoms: C_34  and  O_35 
ROOT
HETATM    1  C   UNK     0     156.898 105.278 109.316  0.00  0.00     0.018 A 
HETATM    2  C   UNK     0     157.805 106.504 109.103  0.00  0.00     0.166 A 
HETATM    3  C   UNK     0     157.318 104.171 110.302  0.00  0.00     0.004 A 
HETATM    4  N   UNK     0     159.133 106.623 109.875  0.00  0.00    -0.347 N 
HETATM    5  C   UNK     0     158.645 104.291 111.073  0.00  0.00     0.024 A 
HETATM    6  C   UNK     0     159.552 105.517 110.860  0.00  0.00     0.099 A 
HETATM    7  C   UNK     0     157.385 107.610 108.117  0.00  0.00     0.281 C 
HETATM    8  O   UNK     0     158.292 108.836 107.904  0.00  0.00    -0.189 OA
HETATM    9  O   UNK     0     159.620 108.957 108.677  0.00  0.00    -0.196 OA
HETATM   10  C   UNK     0     160.039 107.850 109.662  0.00  0.00     0.265 A 
HETATM   11  C   UNK     0     161.367 107.970 110.434  0.00  0.00     0.231 A 
HETATM   12  O   UNK     0     161.787 106.863 111.420  0.00  0.00    -0.216 OA
HETATM   13  C   UNK     0     155.638 108.597 106.359  0.00  0.00     0.175 A 
HETATM   14  C   UNK     0     156.545 109.824 106.146  0.00  0.00     0.075 A 
HETATM   15  O   UNK     0     156.058 107.491 107.345  0.00  0.00    -0.336 OA
HETATM   16  C   UNK     0     153.891 109.584 104.602  0.00  0.00     0.065 A 
HETATM   17  O   UNK     0     154.799 110.810 104.389  0.00  0.00    -0.317 OA
HETATM   18  C   UNK     0     154.312 108.478 105.588  0.00  0.00    -0.008 A 
HETATM   19  C   UNK     0     156.126 110.931 105.161  0.00  0.00     0.072 A 
HETATM   20  C   UNK     0     153.404 107.252 105.800  0.00  0.00     0.030 C 
HETATM   21  O   UNK     0     161.855 110.302 109.236  0.00  0.00    -0.365 OA
HETATM   22  C   UNK     0     162.273 109.195 110.221  0.00  0.00     0.149 A 
HETATM   23  C   UNK     0     162.761 111.528 109.023  0.00  0.00     0.151 A 
HETATM   24  C   UNK     0     164.088 111.647 109.795  0.00  0.00     0.021 A 
HETATM   25  C   UNK     0     163.601 109.315 110.994  0.00  0.00     0.030 A 
HETATM   26  C   UNK     0     164.508 110.541 110.781  0.00  0.00     0.004 A 
HETATM   27  C   UNK     0     162.341 112.634 108.038  0.00  0.00     0.071 C 
HETATM   28  C   UNK     0     163.249 113.861 107.824  0.00  0.00     0.066 C 
HETATM   29  C   UNK     0     161.501 114.848 106.066  0.00  0.00     0.028 C 
HETATM   30  C   UNK     0     162.829 114.968 106.839  0.00  0.00    -0.025 C 
HETATM   31  C   UNK     0     163.736 116.194 106.626  0.00  0.00     0.028 C 
HETATM   32  C   UNK     0     164.020 108.208 111.979  0.00  0.00     0.003 C 
HETATM   33  C   UNK     0     157.033 112.157 104.948  0.00  0.00    -0.021 C 
HETATM   34  C   UNK     0     158.360 112.277 105.720  0.00  0.00     0.028 C 
HETATM   35  C   UNK     0     156.613 113.263 103.963  0.00  0.00     0.048 C 
HETATM   36  C   UNK     0     157.521 114.490 103.749  0.00  0.00    -0.012 C 
HETATM   37  C   UNK     0     158.848 114.609 104.522  0.00  0.00     0.029 C 
HETATM   38  C   UNK     0     157.100 115.596 102.764  0.00  0.00     0.148 C 
HETATM   39  C   UNK     0     158.008 116.822 102.551  0.00  0.00     0.144 A 
HETATM   40  O   UNK     0     159.335 116.942 103.323  0.00  0.00    -0.322 OA
HETATM   41  O   UNK     0     155.773 115.477 101.991  0.00  0.00    -0.189 OA
HETATM   42  C   UNK     0     157.587 117.929 101.565  0.00  0.00     0.151 A 
HETATM   43  C   UNK     0     163.345 117.326 105.643  0.00  0.00     0.030 C 
HETATM   44  C   UNK     0     164.399 118.750 105.395  0.00  0.00    -0.026 C 
HETATM   45  C   UNK     0     158.495 119.155 101.352  0.00  0.00     0.004 A 
HETATM   46  C   UNK     0     159.833 119.235 102.158  0.00  0.00     0.002 A 
HETATM   47  C   UNK     0     160.242 118.168 103.110  0.00  0.00     0.175 A 
HETATM   48  O   UNK     0     156.261 117.809 100.793  0.00  0.00    -0.188 OA
HETATM   49  C   UNK     0     163.999 119.755 104.488  0.00  0.00    -0.005 C 
HETATM   50  C   UNK     0     162.580 119.513 103.736  0.00  0.00    -0.005 C 
HETATM   51  C   UNK     0     161.468 120.140 102.618  0.00  0.00    -0.024 C 
HETATM   52  C   UNK     0     158.039 120.224 100.368  0.00  0.00     0.033 C 
HETATM   53  O   UNK     0     161.010 109.044 109.510  0.00  0.00     0.000 OA
HETATM   54  C   UNK     0     161.781 121.490 101.944  0.00  0.00     0.031 C 
ENDROOT
BRANCH  16  55
HETATM   55  C   UNK     0     152.564 109.465 103.829  0.00  0.00     0.072 A 
HETATM   56  C   UNK     0     152.569 109.016 102.356  0.00  0.00     0.007 A 
HETATM   57  C   UNK     0     151.242 108.897 101.584  0.00  0.00     0.056 A 
HETATM   58  C   UNK     0     149.910 109.226 102.284  0.00  0.00     0.127 A 
HETATM   59  C   UNK     0     149.906 109.674 103.758  0.00  0.00     0.093 A 
HETATM   60  O   UNK     0     148.584 109.106 101.512  0.00  0.00    -0.193 OA
HETATM   61  C   UNK     0     151.233 109.794 104.530  0.00  0.00     0.053 A 
BRANCH  59  62
HETATM   62  O   UNK     0     148.575 110.004 104.458  0.00  0.00    -0.331 OA
HETATM   63  C   UNK     0     147.829 108.911 105.246  0.00  0.00     0.181 C 
ENDBRANCH  59  62
ENDBRANCH  16  55
BRANCH  28  64
HETATM   64  O   UNK     0     164.576 113.981 108.597  0.00  0.00    -0.333 OA
HETATM   65  C   UNK     0     165.915 113.842 107.851  0.00  0.00     0.181 C 
ENDBRANCH  28  64
TORSDOF 3
ENDMDL
MODEL 6
REMARK VINA RESULT:      -9.5     29.803     35.318
REMARK  3 active torsions:
REMARK  status: ('A' for Active; 'I' for Inactive)
REMARK    1  A    between atoms: C_16  and  C_21 
REMARK    2  A    between atoms: C_24  and  O_62 
REMARK    3  A    between atoms: C_34  and  O_35 
ROOT
HETATM    1  C   UNK     0     160.210 131.678 125.183  0.00  0.00     0.018 A 
HETATM    2  C   UNK     0     158.694 131.427 125.287  0.00  0.00     0.166 A 
HETATM    3  C   UNK     0     161.202 130.621 125.704  0.00  0.00     0.004 A 
HETATM    4  N   UNK     0     158.171 130.121 125.912  0.00  0.00    -0.347 N 
HETATM    5  C   UNK     0     160.679 129.315 126.328  0.00  0.00     0.024 A 
HETATM    6  C   UNK     0     159.163 129.065 126.433  0.00  0.00     0.099 A 
HETATM    7  C   UNK     0     157.701 132.484 124.767  0.00  0.00     0.281 C 
HETATM    8  O   UNK     0     156.186 132.234 124.871  0.00  0.00    -0.189 OA
HETATM    9  O   UNK     0     155.661 130.927 125.496  0.00  0.00    -0.196 OA
HETATM   10  C   UNK     0     156.654 129.871 126.016  0.00  0.00     0.265 A 
HETATM   11  C   UNK     0     156.130 128.564 126.641  0.00  0.00     0.231 A 
HETATM   12  O   UNK     0     157.122 127.508 127.162  0.00  0.00    -0.216 OA
HETATM   13  C   UNK     0     157.232 134.847 123.621  0.00  0.00     0.175 A 
HETATM   14  C   UNK     0     155.716 134.597 123.725  0.00  0.00     0.075 A 
HETATM   15  O   UNK     0     158.225 133.791 124.142  0.00  0.00    -0.336 OA
HETATM   16  C   UNK     0     156.764 137.210 122.476  0.00  0.00     0.065 A 
HETATM   17  O   UNK     0     155.248 136.959 122.580  0.00  0.00    -0.317 OA
HETATM   18  C   UNK     0     157.756 136.153 122.996  0.00  0.00    -0.008 A 
HETATM   19  C   UNK     0     154.723 135.652 123.205  0.00  0.00     0.072 A 
HETATM   20  C   UNK     0     159.272 136.405 122.892  0.00  0.00     0.030 C 
HETATM   21  O   UNK     0     153.622 129.369 126.225  0.00  0.00    -0.365 OA
HETATM   22  C   UNK     0     154.615 128.314 126.745  0.00  0.00     0.149 A 
HETATM   23  C   UNK     0     152.107 129.119 126.329  0.00  0.00     0.151 A 
HETATM   24  C   UNK     0     151.583 127.813 126.954  0.00  0.00     0.021 A 
HETATM   25  C   UNK     0     154.092 127.007 127.370  0.00  0.00     0.030 A 
HETATM   26  C   UNK     0     152.576 126.757 127.475  0.00  0.00     0.004 A 
HETATM   27  C   UNK     0     151.114 130.176 125.809  0.00  0.00     0.071 C 
HETATM   28  C   UNK     0     149.597 129.925 125.913  0.00  0.00     0.066 C 
HETATM   29  C   UNK     0     149.128 132.289 124.767  0.00  0.00     0.028 C 
HETATM   30  C   UNK     0     148.605 130.982 125.392  0.00  0.00    -0.025 C 
HETATM   31  C   UNK     0     147.089 130.731 125.496  0.00  0.00     0.028 C 
HETATM   32  C   UNK     0     155.084 125.951 127.891  0.00  0.00     0.003 C 
HETATM   33  C   UNK     0     153.207 135.402 123.309  0.00  0.00    -0.021 C 
HETATM   34  C   UNK     0     152.684 134.096 123.934  0.00  0.00     0.028 C 
HETATM   35  C   UNK     0     152.215 136.459 122.789  0.00  0.00     0.048 C 
HETATM   36  C   UNK     0     150.699 136.208 122.893  0.00  0.00    -0.012 C 
HETATM   37  C   UNK     0     150.175 134.901 123.518  0.00  0.00     0.029 C 
HETATM   38  C   UNK     0     149.706 137.265 122.372  0.00  0.00     0.148 C 
HETATM   39  C   UNK     0     148.190 137.015 122.476  0.00  0.00     0.144 A 
HETATM   40  O   UNK     0     147.667 135.708 123.101  0.00  0.00    -0.322 OA
HETATM   41  O   UNK     0     150.230 138.572 121.747  0.00  0.00    -0.189 OA
HETATM   42  C   UNK     0     147.198 138.071 121.956  0.00  0.00     0.151 A 
HETATM   43  C   UNK     0     146.062 131.771 124.983  0.00  0.00     0.030 C 
HETATM   44  C   UNK     0     144.301 131.480 125.105  0.00  0.00    -0.026 C 
HETATM   45  C   UNK     0     145.682 137.821 122.060  0.00  0.00     0.004 A 
HETATM   46  C   UNK     0     145.195 136.480 122.702  0.00  0.00     0.002 A 
HETATM   47  C   UNK     0     146.151 135.457 123.206  0.00  0.00     0.175 A 
HETATM   48  O   UNK     0     147.721 139.377 121.331  0.00  0.00    -0.188 OA
HETATM   49  C   UNK     0     143.405 132.460 124.622  0.00  0.00    -0.005 C 
HETATM   50  C   UNK     0     144.081 133.793 123.986  0.00  0.00    -0.005 C 
HETATM   51  C   UNK     0     143.783 135.296 123.258  0.00  0.00    -0.024 C 
HETATM   52  C   UNK     0     144.738 138.893 121.532  0.00  0.00     0.033 C 
HETATM   53  O   UNK     0     155.151 129.537 126.161  0.00  0.00     0.000 OA
HETATM   54  C   UNK     0     142.322 135.731 123.032  0.00  0.00     0.031 C 
ENDROOT
BRANCH  16  55
HETATM   55  C   UNK     0     157.287 138.517 121.851  0.00  0.00     0.072 A 
HETATM   56  C   UNK     0     157.350 139.803 122.696  0.00  0.00     0.007 A 
HETATM   57  C   UNK     0     157.874 141.110 122.071  0.00  0.00     0.056 A 
HETATM   58  C   UNK     0     158.334 141.130 120.601  0.00  0.00     0.127 A 
HETATM   59  C   UNK     0     158.270 139.844 119.756  0.00  0.00     0.093 A 
HETATM   60  O   UNK     0     158.857 142.437 119.977  0.00  0.00    -0.193 OA
HETATM   61  C   UNK     0     157.747 138.538 120.381  0.00  0.00     0.053 A 
BRANCH  59  62
HETATM   62  O   UNK     0     158.730 139.865 118.287  0.00  0.00    -0.331 OA
HETATM   63  C   UNK     0     158.030 138.968 117.249  0.00  0.00     0.181 C 
ENDBRANCH  59  62
ENDBRANCH  16  55
BRANCH  28  64
HETATM   64  O   UNK     0     149.074 128.618 126.538  0.00  0.00    -0.333 OA
HETATM   65  C   UNK     0     148.451 127.533 125.642  0.00  0.00     0.181 C 
ENDBRANCH  28  64
TORSDOF 3
ENDMDL
MODEL 7
REMARK VINA RESULT:      -9.2     47.359     53.949
REMARK  3 active torsions:
REMARK  status: ('A' for Active; 'I' for Inactive)
REMARK    1  A    between atoms: C_16  and  C_21 
REMARK    2  A    between atoms: C_24  and  O_62 
REMARK    3  A    between atoms: C_34  and  O_35 
ROOT
HETATM    1  C   UNK     0     135.982 169.367 102.020  0.00  0.00     0.018 A 
HETATM    2  C   UNK     0     136.949 169.268 100.825  0.00  0.00     0.166 A 
HETATM    3  C   UNK     0     136.307 170.303 103.199  0.00  0.00     0.004 A 
HETATM    4  N   UNK     0     138.241 170.106 100.810  0.00  0.00    -0.347 N 
HETATM    5  C   UNK     0     137.599 171.141 103.183  0.00  0.00     0.024 A 
HETATM    6  C   UNK     0     138.566 171.042 101.988  0.00  0.00     0.099 A 
HETATM    7  C   UNK     0     136.623 168.332  99.647  0.00  0.00     0.281 C 
HETATM    8  O   UNK     0     137.590 168.233  98.452  0.00  0.00    -0.189 OA
HETATM    9  O   UNK     0     138.883 169.071  98.435  0.00  0.00    -0.196 OA
HETATM   10  C   UNK     0     139.207 170.007  99.614  0.00  0.00     0.265 A 
HETATM   11  C   UNK     0     140.500 170.845  99.598  0.00  0.00     0.231 A 
HETATM   12  O   UNK     0     140.826 171.781 100.776  0.00  0.00    -0.216 OA
HETATM   13  C   UNK     0     135.005 166.557  98.484  0.00  0.00     0.175 A 
HETATM   14  C   UNK     0     135.972 166.459  97.289  0.00  0.00     0.075 A 
HETATM   15  O   UNK     0     135.331 167.494  99.663  0.00  0.00    -0.336 OA
HETATM   16  C   UNK     0     133.388 164.784  97.322  0.00  0.00     0.065 A 
HETATM   17  O   UNK     0     134.355 164.685  96.127  0.00  0.00    -0.317 OA
HETATM   18  C   UNK     0     133.713 165.720  98.500  0.00  0.00    -0.008 A 
HETATM   19  C   UNK     0     135.648 165.523  96.110  0.00  0.00     0.072 A 
HETATM   20  C   UNK     0     132.746 165.818  99.695  0.00  0.00     0.030 C 
HETATM   21  O   UNK     0     141.142 169.810  97.225  0.00  0.00    -0.365 OA
HETATM   22  C   UNK     0     141.466 170.746  98.404  0.00  0.00     0.149 A 
HETATM   23  C   UNK     0     142.108 169.712  96.031  0.00  0.00     0.151 A 
HETATM   24  C   UNK     0     143.400 170.549  96.015  0.00  0.00     0.021 A 
HETATM   25  C   UNK     0     142.758 171.584  98.388  0.00  0.00     0.030 A 
HETATM   26  C   UNK     0     143.725 171.485  97.193  0.00  0.00     0.004 A 
HETATM   27  C   UNK     0     141.782 168.775  94.852  0.00  0.00     0.071 C 
HETATM   28  C   UNK     0     142.750 168.676  93.657  0.00  0.00     0.066 C 
HETATM   29  C   UNK     0     141.132 166.902  92.494  0.00  0.00     0.028 C 
HETATM   30  C   UNK     0     142.424 167.740  92.478  0.00  0.00    -0.025 C 
HETATM   31  C   UNK     0     143.391 167.641  91.283  0.00  0.00     0.028 C 
HETATM   32  C   UNK     0     143.083 172.520  99.566  0.00  0.00     0.003 C 
HETATM   33  C   UNK     0     136.614 165.424  94.916  0.00  0.00    -0.021 C 
HETATM   34  C   UNK     0     137.906 166.261  94.899  0.00  0.00     0.028 C 
HETATM   35  C   UNK     0     136.289 164.488  93.737  0.00  0.00     0.048 C 
HETATM   36  C   UNK     0     137.256 164.389  92.542  0.00  0.00    -0.012 C 
HETATM   37  C   UNK     0     138.548 165.227  92.526  0.00  0.00     0.029 C 
HETATM   38  C   UNK     0     136.930 163.452  91.363  0.00  0.00     0.148 C 
HETATM   39  C   UNK     0     137.897 163.354  90.169  0.00  0.00     0.144 A 
HETATM   40  O   UNK     0     139.189 164.192  90.153  0.00  0.00    -0.322 OA
HETATM   41  O   UNK     0     135.638 162.615  91.379  0.00  0.00    -0.189 OA
HETATM   42  C   UNK     0     137.571 162.417  88.990  0.00  0.00     0.151 A 
HETATM   43  C   UNK     0     143.096 166.710  90.081  0.00  0.00     0.030 C 
HETATM   44  C   UNK     0     144.219 166.596  88.693  0.00  0.00    -0.026 C 
HETATM   45  C   UNK     0     138.538 162.319  87.795  0.00  0.00     0.004 A 
HETATM   46  C   UNK     0     139.839 163.188  87.821  0.00  0.00     0.002 A 
HETATM   47  C   UNK     0     140.156 164.093  88.958  0.00  0.00     0.175 A 
HETATM   48  O   UNK     0     136.279 161.580  89.006  0.00  0.00    -0.188 OA
HETATM   49  C   UNK     0     143.905 165.732  87.621  0.00  0.00    -0.005 C 
HETATM   50  C   UNK     0     142.515 164.904  87.757  0.00  0.00    -0.005 C 
HETATM   51  C   UNK     0     141.486 163.775  87.017  0.00  0.00    -0.024 C 
HETATM   52  C   UNK     0     138.176 161.380  86.653  0.00  0.00     0.033 C 
HETATM   53  O   UNK     0     140.233 169.970  98.458  0.00  0.00     0.000 OA
HETATM   54  C   UNK     0     141.886 163.197  85.646  0.00  0.00     0.031 C 
ENDROOT
BRANCH  16  55
HETATM   55  C   UNK     0     132.095 163.946  97.338  0.00  0.00     0.072 A 
HETATM   56  C   UNK     0     132.028 162.650  98.168  0.00  0.00     0.007 A 
HETATM   57  C   UNK     0     130.736 161.812  98.184  0.00  0.00     0.056 A 
HETATM   58  C   UNK     0     129.511 162.270  97.369  0.00  0.00     0.127 A 
HETATM   59  C   UNK     0     129.578 163.565  96.539  0.00  0.00     0.093 A 
HETATM   60  O   UNK     0     128.219 161.432  97.386  0.00  0.00    -0.193 OA
HETATM   61  C   UNK     0     130.871 164.403  96.523  0.00  0.00     0.053 A 
BRANCH  59  62
HETATM   62  O   UNK     0     128.354 164.023  95.725  0.00  0.00    -0.331 OA
HETATM   63  C   UNK     0     127.180 164.727  96.430  0.00  0.00     0.181 C 
ENDBRANCH  59  62
ENDBRANCH  16  55
BRANCH  28  64
HETATM   64  O   UNK     0     144.042 169.514  93.641  0.00  0.00    -0.333 OA
HETATM   65  C   UNK     0     145.406 168.828  93.831  0.00  0.00     0.181 C 
ENDBRANCH  28  64
TORSDOF 3
ENDMDL
MODEL 8
REMARK VINA RESULT:      -9.2     38.851     45.346
REMARK  3 active torsions:
REMARK  status: ('A' for Active; 'I' for Inactive)
REMARK    1  A    between atoms: C_16  and  C_21 
REMARK    2  A    between atoms: C_24  and  O_62 
REMARK    3  A    between atoms: C_34  and  O_35 
ROOT
HETATM    1  C   UNK     0     157.366 112.253 145.012  0.00  0.00     0.018 A 
HETATM    2  C   UNK     0     157.790 110.773 144.993  0.00  0.00     0.166 A 
HETATM    3  C   UNK     0     158.432 113.359 145.118  0.00  0.00     0.004 A 
HETATM    4  N   UNK     0     159.282 110.399 145.081  0.00  0.00    -0.347 N 
HETATM    5  C   UNK     0     159.923 112.985 145.206  0.00  0.00     0.024 A 
HETATM    6  C   UNK     0     160.348 111.504 145.188  0.00  0.00     0.099 A 
HETATM    7  C   UNK     0     156.723 109.667 144.887  0.00  0.00     0.281 C 
HETATM    8  O   UNK     0     157.148 108.187 144.868  0.00  0.00    -0.189 OA
HETATM    9  O   UNK     0     158.640 107.812 144.956  0.00  0.00    -0.196 OA
HETATM   10  C   UNK     0     159.705 108.918 145.062  0.00  0.00     0.265 A 
HETATM   11  C   UNK     0     161.197 108.543 145.150  0.00  0.00     0.231 A 
HETATM   12  O   UNK     0     162.264 109.649 145.257  0.00  0.00    -0.216 OA
HETATM   13  C   UNK     0     154.165 108.936 144.692  0.00  0.00     0.175 A 
HETATM   14  C   UNK     0     154.589 107.456 144.674  0.00  0.00     0.075 A 
HETATM   15  O   UNK     0     155.232 110.042 144.799  0.00  0.00    -0.336 OA
HETATM   16  C   UNK     0     151.607 108.205 144.498  0.00  0.00     0.065 A 
HETATM   17  O   UNK     0     152.032 106.725 144.479  0.00  0.00    -0.317 OA
HETATM   18  C   UNK     0     152.674 109.311 144.604  0.00  0.00    -0.008 A 
HETATM   19  C   UNK     0     153.524 106.349 144.567  0.00  0.00     0.072 A 
HETATM   20  C   UNK     0     152.249 110.790 144.623  0.00  0.00     0.030 C 
HETATM   21  O   UNK     0     160.556 105.957 145.025  0.00  0.00    -0.365 OA
HETATM   22  C   UNK     0     161.621 107.064 145.132  0.00  0.00     0.149 A 
HETATM   23  C   UNK     0     160.980 104.478 145.007  0.00  0.00     0.151 A 
HETATM   24  C   UNK     0     162.471 104.103 145.094  0.00  0.00     0.021 A 
HETATM   25  C   UNK     0     163.113 106.689 145.220  0.00  0.00     0.030 A 
HETATM   26  C   UNK     0     163.538 105.209 145.201  0.00  0.00     0.004 A 
HETATM   27  C   UNK     0     159.913 103.372 144.900  0.00  0.00     0.071 C 
HETATM   28  C   UNK     0     160.338 101.891 144.881  0.00  0.00     0.066 C 
HETATM   29  C   UNK     0     157.780 101.160 144.687  0.00  0.00     0.028 C 
HETATM   30  C   UNK     0     159.271 100.785 144.775  0.00  0.00    -0.025 C 
HETATM   31  C   UNK     0     159.696  99.305 144.756  0.00  0.00     0.028 C 
HETATM   32  C   UNK     0     164.179 107.795 145.326  0.00  0.00     0.003 C 
HETATM   33  C   UNK     0     153.948 104.869 144.548  0.00  0.00    -0.021 C 
HETATM   34  C   UNK     0     155.439 104.494 144.636  0.00  0.00     0.028 C 
HETATM   35  C   UNK     0     152.882 103.763 144.442  0.00  0.00     0.048 C 
HETATM   36  C   UNK     0     153.306 102.283 144.423  0.00  0.00    -0.012 C 
HETATM   37  C   UNK     0     154.798 101.909 144.511  0.00  0.00     0.029 C 
HETATM   38  C   UNK     0     152.239 101.177 144.317  0.00  0.00     0.148 C 
HETATM   39  C   UNK     0     152.664  99.697 144.298  0.00  0.00     0.144 A 
HETATM   40  O   UNK     0     154.155  99.323 144.386  0.00  0.00    -0.322 OA
HETATM   41  O   UNK     0     150.748 101.552 144.229  0.00  0.00    -0.189 OA
HETATM   42  C   UNK     0     151.597  98.591 144.192  0.00  0.00     0.151 A 
HETATM   43  C   UNK     0     158.651  98.167 144.650  0.00  0.00     0.030 C 
HETATM   44  C   UNK     0     159.144  96.447 144.628  0.00  0.00    -0.026 C 
HETATM   45  C   UNK     0     152.022  97.111 144.173  0.00  0.00     0.004 A 
HETATM   46  C   UNK     0     153.547  96.777 144.264  0.00  0.00     0.002 A 
HETATM   47  C   UNK     0     154.580  97.842 144.367  0.00  0.00     0.175 A 
HETATM   48  O   UNK     0     150.106  98.966 144.104  0.00  0.00    -0.188 OA
HETATM   49  C   UNK     0     158.153  95.447 144.530  0.00  0.00    -0.005 C 
HETATM   50  C   UNK     0     156.618  95.970 144.444  0.00  0.00    -0.005 C 
HETATM   51  C   UNK     0     154.990  95.504 144.321  0.00  0.00    -0.024 C 
HETATM   52  C   UNK     0     150.933  96.052 144.066  0.00  0.00     0.033 C 
HETATM   53  O   UNK     0     160.221 107.460 145.051  0.00  0.00     0.000 OA
HETATM   54  C   UNK     0     154.654  94.002 144.250  0.00  0.00     0.031 C 
ENDROOT
BRANCH  16  55
HETATM   55  C   UNK     0     150.116 108.579 144.410  0.00  0.00     0.072 A 
HETATM   56  C   UNK     0     149.402 108.584 143.045  0.00  0.00     0.007 A 
HETATM   57  C   UNK     0     147.911 108.958 142.957  0.00  0.00     0.056 A 
HETATM   58  C   UNK     0     147.133 109.328 144.234  0.00  0.00     0.127 A 
HETATM   59  C   UNK     0     147.846 109.323 145.599  0.00  0.00     0.093 A 
HETATM   60  O   UNK     0     145.642 109.702 144.146  0.00  0.00    -0.193 OA
HETATM   61  C   UNK     0     149.338 108.949 145.687  0.00  0.00     0.053 A 
BRANCH  59  62
HETATM   62  O   UNK     0     147.069 109.693 146.875  0.00  0.00    -0.331 OA
HETATM   63  C   UNK     0     146.758 111.168 147.187  0.00  0.00     0.181 C 
ENDBRANCH  59  62
ENDBRANCH  16  55
BRANCH  28  64
HETATM   64  O   UNK     0     161.830 101.517 144.969  0.00  0.00    -0.333 OA
HETATM   65  C   UNK     0     162.566 100.994 143.723  0.00  0.00     0.181 C 
ENDBRANCH  28  64
TORSDOF 3
ENDMDL
MODEL 9
REMARK VINA RESULT:      -9.1     22.508     29.908
REMARK  3 active torsions:
REMARK  status: ('A' for Active; 'I' for Inactive)
REMARK    1  A    between atoms: C_16  and  C_21 
REMARK    2  A    between atoms: C_24  and  O_62 
REMARK    3  A    between atoms: C_34  and  O_35 
ROOT
HETATM    1  C   UNK     0     143.111 122.759  91.126  0.00  0.00     0.018 A 
HETATM    2  C   UNK     0     143.488 121.452  91.848  0.00  0.00     0.166 A 
HETATM    3  C   UNK     0     144.020 123.315  90.014  0.00  0.00     0.004 A 
HETATM    4  N   UNK     0     144.775 120.701  91.457  0.00  0.00    -0.347 N 
HETATM    5  C   UNK     0     145.306 122.564  89.624  0.00  0.00     0.024 A 
HETATM    6  C   UNK     0     145.683 121.256  90.346  0.00  0.00     0.099 A 
HETATM    7  C   UNK     0     142.579 120.897  92.960  0.00  0.00     0.281 C 
HETATM    8  O   UNK     0     142.956 119.590  93.682  0.00  0.00    -0.189 OA
HETATM    9  O   UNK     0     144.243 118.837  93.291  0.00  0.00    -0.196 OA
HETATM   10  C   UNK     0     145.151 119.394  92.179  0.00  0.00     0.265 A 
HETATM   11  C   UNK     0     146.438 118.641  91.789  0.00  0.00     0.231 A 
HETATM   12  O   UNK     0     147.347 119.197  90.677  0.00  0.00    -0.216 OA
HETATM   13  C   UNK     0     140.383 121.093  94.463  0.00  0.00     0.175 A 
HETATM   14  C   UNK     0     140.760 119.786  95.184  0.00  0.00     0.075 A 
HETATM   15  O   UNK     0     141.292 121.648  93.350  0.00  0.00    -0.336 OA
HETATM   16  C   UNK     0     138.188 121.289  95.965  0.00  0.00     0.065 A 
HETATM   17  O   UNK     0     138.565 119.982  96.686  0.00  0.00    -0.317 OA
HETATM   18  C   UNK     0     139.097 121.844  94.853  0.00  0.00    -0.008 A 
HETATM   19  C   UNK     0     139.852 119.229  96.296  0.00  0.00     0.072 A 
HETATM   20  C   UNK     0     138.719 123.151  94.132  0.00  0.00     0.030 C 
HETATM   21  O   UNK     0     145.907 116.779  93.623  0.00  0.00    -0.365 OA
HETATM   22  C   UNK     0     146.815 117.335  92.511  0.00  0.00     0.149 A 
HETATM   23  C   UNK     0     146.283 115.472  94.344  0.00  0.00     0.151 A 
HETATM   24  C   UNK     0     147.569 114.721  93.954  0.00  0.00     0.021 A 
HETATM   25  C   UNK     0     148.101 116.583  92.120  0.00  0.00     0.030 A 
HETATM   26  C   UNK     0     148.478 115.276  92.842  0.00  0.00     0.004 A 
HETATM   27  C   UNK     0     145.374 114.917  95.456  0.00  0.00     0.071 C 
HETATM   28  C   UNK     0     145.752 113.609  96.178  0.00  0.00     0.066 C 
HETATM   29  C   UNK     0     143.556 113.805  97.681  0.00  0.00     0.028 C 
HETATM   30  C   UNK     0     144.842 113.053  97.290  0.00  0.00    -0.025 C 
HETATM   31  C   UNK     0     145.219 111.746  98.012  0.00  0.00     0.028 C 
HETATM   32  C   UNK     0     149.010 117.139  91.008  0.00  0.00     0.003 C 
HETATM   33  C   UNK     0     140.229 117.922  97.018  0.00  0.00    -0.021 C 
HETATM   34  C   UNK     0     141.515 117.171  96.628  0.00  0.00     0.028 C 
HETATM   35  C   UNK     0     139.320 117.366  98.130  0.00  0.00     0.048 C 
HETATM   36  C   UNK     0     139.697 116.059  98.852  0.00  0.00    -0.012 C 
HETATM   37  C   UNK     0     140.984 115.308  98.461  0.00  0.00     0.029 C 
HETATM   38  C   UNK     0     138.788 115.504  99.964  0.00  0.00     0.148 C 
HETATM   39  C   UNK     0     139.165 114.197 100.686  0.00  0.00     0.144 A 
HETATM   40  O   UNK     0     140.451 113.445 100.295  0.00  0.00    -0.322 OA
HETATM   41  O   UNK     0     137.501 116.255 100.355  0.00  0.00    -0.189 OA
HETATM   42  C   UNK     0     138.256 113.641 101.798  0.00  0.00     0.151 A 
HETATM   43  C   UNK     0     144.329 111.158  99.135  0.00  0.00     0.030 C 
HETATM   44  C   UNK     0     144.767 109.640  99.973  0.00  0.00    -0.026 C 
HETATM   45  C   UNK     0     138.633 112.334 102.519  0.00  0.00     0.004 A 
HETATM   46  C   UNK     0     139.948 111.604 102.090  0.00  0.00     0.002 A 
HETATM   47  C   UNK     0     140.829 112.138 101.017  0.00  0.00     0.175 A 
HETATM   48  O   UNK     0     136.970 114.393 102.188  0.00  0.00    -0.188 OA
HETATM   49  C   UNK     0     143.922 109.145 100.990  0.00  0.00    -0.005 C 
HETATM   50  C   UNK     0     142.597 110.028 101.309  0.00  0.00    -0.005 C 
HETATM   51  C   UNK     0     141.200 110.152 102.264  0.00  0.00    -0.024 C 
HETATM   52  C   UNK     0     137.704 111.822 103.612  0.00  0.00     0.033 C 
HETATM   53  O   UNK     0     145.607 118.076  92.850  0.00  0.00     0.000 OA
HETATM   54  C   UNK     0     140.923 109.059 103.314  0.00  0.00     0.031 C 
ENDROOT
BRANCH  16  55
HETATM   55  C   UNK     0     136.902 122.040  96.355  0.00  0.00     0.072 A 
HETATM   56  C   UNK     0     135.527 121.476  95.951  0.00  0.00     0.007 A 
HETATM   57  C   UNK     0     134.241 122.227  96.341  0.00  0.00     0.056 A 
HETATM   58  C   UNK     0     134.329 123.543  97.136  0.00  0.00     0.127 A 
HETATM   59  C   UNK     0     135.703 124.108  97.541  0.00  0.00     0.093 A 
HETATM   60  O   UNK     0     133.043 124.294  97.527  0.00  0.00    -0.193 OA
HETATM   61  C   UNK     0     136.989 123.357  97.150  0.00  0.00     0.053 A 
BRANCH  59  62
HETATM   62  O   UNK     0     135.791 125.424  98.336  0.00  0.00    -0.331 OA
HETATM   63  C   UNK     0     135.826 126.772  97.592  0.00  0.00     0.181 C 
ENDBRANCH  59  62
ENDBRANCH  16  55
BRANCH  28  64
HETATM   64  O   UNK     0     147.038 112.857  95.787  0.00  0.00    -0.333 OA
HETATM   65  C   UNK     0     148.263 112.893  96.719  0.00  0.00     0.181 C 
ENDBRANCH  28  64
TORSDOF 3
ENDMDL
MODEL 10
REMARK VINA RESULT:      -9.0     49.636     55.603
REMARK  3 active torsions:
REMARK  status: ('A' for Active; 'I' for Inactive)
REMARK    1  A    between atoms: C_16  and  C_21 
REMARK    2  A    between atoms: C_24  and  O_62 
REMARK    3  A    between atoms: C_34  and  O_35 
ROOT
HETATM    1  C   UNK     0     146.453 167.896  90.837  0.00  0.00     0.018 A 
HETATM    2  C   UNK     0     145.043 167.332  91.095  0.00  0.00     0.166 A 
HETATM    3  C   UNK     0     147.130 167.681  89.471  0.00  0.00     0.004 A 
HETATM    4  N   UNK     0     144.310 166.554  89.985  0.00  0.00    -0.347 N 
HETATM    5  C   UNK     0     146.398 166.904  88.362  0.00  0.00     0.024 A 
HETATM    6  C   UNK     0     144.988 166.340  88.620  0.00  0.00     0.099 A 
HETATM    7  C   UNK     0     144.365 167.546  92.461  0.00  0.00     0.281 C 
HETATM    8  O   UNK     0     142.956 166.983  92.719  0.00  0.00    -0.189 OA
HETATM    9  O   UNK     0     142.222 166.204  91.609  0.00  0.00    -0.196 OA
HETATM   10  C   UNK     0     142.900 165.991  90.244  0.00  0.00     0.265 A 
HETATM   11  C   UNK     0     142.167 165.213  89.134  0.00  0.00     0.231 A 
HETATM   12  O   UNK     0     142.844 164.998  87.768  0.00  0.00    -0.216 OA
HETATM   13  C   UNK     0     144.421 168.538  94.937  0.00  0.00     0.175 A 
HETATM   14  C   UNK     0     143.011 167.975  95.195  0.00  0.00     0.075 A 
HETATM   15  O   UNK     0     145.098 168.324  93.571  0.00  0.00    -0.336 OA
HETATM   16  C   UNK     0     144.476 169.530  97.412  0.00  0.00     0.065 A 
HETATM   17  O   UNK     0     143.066 168.967  97.670  0.00  0.00    -0.317 OA
HETATM   18  C   UNK     0     145.153 169.316  96.046  0.00  0.00    -0.008 A 
HETATM   19  C   UNK     0     142.333 168.188  96.561  0.00  0.00     0.072 A 
HETATM   20  C   UNK     0     146.563 169.880  95.789  0.00  0.00     0.030 C 
HETATM   21  O   UNK     0     140.080 164.863  90.757  0.00  0.00    -0.365 OA
HETATM   22  C   UNK     0     140.758 164.649  89.391  0.00  0.00     0.149 A 
HETATM   23  C   UNK     0     138.671 164.300  91.014  0.00  0.00     0.151 A 
HETATM   24  C   UNK     0     137.938 163.522  89.906  0.00  0.00     0.021 A 
HETATM   25  C   UNK     0     140.025 163.871  88.282  0.00  0.00     0.030 A 
HETATM   26  C   UNK     0     138.616 163.308  88.539  0.00  0.00     0.004 A 
HETATM   27  C   UNK     0     137.993 164.514  92.381  0.00  0.00     0.071 C 
HETATM   28  C   UNK     0     136.583 163.950  92.639  0.00  0.00     0.066 C 
HETATM   29  C   UNK     0     136.638 164.942  95.115  0.00  0.00     0.028 C 
HETATM   30  C   UNK     0     135.905 164.164  94.005  0.00  0.00    -0.025 C 
HETATM   31  C   UNK     0     134.495 163.601  94.262  0.00  0.00     0.028 C 
HETATM   32  C   UNK     0     140.703 163.657  86.916  0.00  0.00     0.003 C 
HETATM   33  C   UNK     0     140.923 167.625  96.818  0.00  0.00    -0.021 C 
HETATM   34  C   UNK     0     140.190 166.847  95.709  0.00  0.00     0.028 C 
HETATM   35  C   UNK     0     140.245 167.839  98.184  0.00  0.00     0.048 C 
HETATM   36  C   UNK     0     138.835 167.276  98.442  0.00  0.00    -0.012 C 
HETATM   37  C   UNK     0     138.103 166.498  97.332  0.00  0.00     0.029 C 
HETATM   38  C   UNK     0     138.158 167.490  99.808  0.00  0.00     0.148 C 
HETATM   39  C   UNK     0     136.748 166.926 100.066  0.00  0.00     0.144 A 
HETATM   40  O   UNK     0     136.016 166.148  98.956  0.00  0.00    -0.322 OA
HETATM   41  O   UNK     0     138.891 168.268 100.918  0.00  0.00    -0.189 OA
HETATM   42  C   UNK     0     136.071 167.141 101.432  0.00  0.00     0.151 A 
HETATM   43  C   UNK     0     133.784 163.797  95.624  0.00  0.00     0.030 C 
HETATM   44  C   UNK     0     132.146 163.142  95.923  0.00  0.00    -0.026 C 
HETATM   45  C   UNK     0     134.661 166.577 101.690  0.00  0.00     0.004 A 
HETATM   46  C   UNK     0     133.954 165.793 100.535  0.00  0.00     0.002 A 
HETATM   47  C   UNK     0     134.606 165.585  99.214  0.00  0.00     0.175 A 
HETATM   48  O   UNK     0     136.803 167.918 102.541  0.00  0.00    -0.188 OA
HETATM   49  C   UNK     0     131.540 163.348  97.182  0.00  0.00    -0.005 C 
HETATM   50  C   UNK     0     132.414 164.183  98.266  0.00  0.00    -0.005 C 
HETATM   51  C   UNK     0     132.449 164.814  99.841  0.00  0.00    -0.024 C 
HETATM   52  C   UNK     0     134.030 166.813 103.055  0.00  0.00     0.033 C 
HETATM   53  O   UNK     0     141.485 165.391  90.414  0.00  0.00     0.000 OA
HETATM   54  C   UNK     0     131.227 164.594 100.753  0.00  0.00     0.031 C 
ENDROOT
BRANCH  16  55
HETATM   55  C   UNK     0     145.208 170.308  98.522  0.00  0.00     0.072 A 
HETATM   56  C   UNK     0     145.051 171.837  98.623  0.00  0.00     0.007 A 
HETATM   57  C   UNK     0     145.783 172.615  99.733  0.00  0.00     0.056 A 
HETATM   58  C   UNK     0     146.673 171.864 100.741  0.00  0.00     0.127 A 
HETATM   59  C   UNK     0     146.831 170.335 100.639  0.00  0.00     0.093 A 
HETATM   60  O   UNK     0     147.405 172.642 101.849  0.00  0.00    -0.193 OA
HETATM   61  C   UNK     0     146.099 169.558  99.530  0.00  0.00     0.053 A 
BRANCH  59  62
HETATM   62  O   UNK     0     147.721 169.585 101.647  0.00  0.00    -0.331 OA
HETATM   63  C   UNK     0     148.400 168.264 101.239  0.00  0.00     0.181 C 
ENDBRANCH  59  62
ENDBRANCH  16  55
BRANCH  28  64
HETATM   64  O   UNK     0     135.850 163.172  91.529  0.00  0.00    -0.333 OA
HETATM   65  C   UNK     0     135.745 161.639  91.606  0.00  0.00     0.181 C 
ENDBRANCH  28  64
TORSDOF 3
ENDMDL
