REMARK  1 active torsions:
REMARK  status: ('A' for Active; 'I' for Inactive)
REMARK    1  A    between atoms: C_3  and  C_9 
ROOT
HETATM    1  C   UNK     0       0.310  -0.924   0.000  0.00  0.00     0.013 A 
HETATM    2  N   UNK     0       2.746  -0.272   0.000  0.00  0.00    -0.241 NA
HETATM    3  C   UNK     0       1.239  -0.016   0.000  0.00  0.00     0.071 A 
HETATM    4  N   UNK     0       1.271  -3.425   0.000  0.00  0.00    -0.223 NA
HETATM    5  C   UNK     0       0.299  -2.484   0.000  0.00  0.00     0.059 A 
HETATM    6  C   UNK     0       2.778  -3.157   0.000  0.00  0.00     0.232 A 
HETATM    7  C   UNK     0      -1.036  -0.176   0.000  0.00  0.00     0.062 A 
HETATM    8  C   UNK     0       3.451  -1.683   0.000  0.00  0.00     0.146 A 
HETATM    9  C   UNK     0      -1.036  -3.253   0.000  0.00  0.00     0.051 A 
HETATM   10  O   UNK     0       3.708  -4.375   0.000  0.00  0.00    -0.168 OA
HETATM   11  C   UNK     0      -2.361  -0.946   0.000  0.00  0.00     0.018 A 
HETATM   12  C   UNK     0      -2.361  -2.484   0.000  0.00  0.00     0.040 A 
HETATM   13 Cl   UNK     0      -3.708  -0.176   0.000  0.00  0.00    -0.091 Cl
ENDROOT
BRANCH   3  14
HETATM   14  C   UNK     0       0.780   1.448   0.000  0.00  0.00    -0.027 A 
HETATM   15  C   UNK     0       1.816   2.580   0.000  0.00  0.00     0.024 A 
HETATM   16  C   UNK     0       1.368   4.044   0.000  0.00  0.00     0.004 A 
HETATM   17  C   UNK     0      -0.139   4.375   0.000  0.00  0.00     0.001 A 
HETATM   18  C   UNK     0      -1.197   3.254   0.000  0.00  0.00     0.004 A 
HETATM   19  C   UNK     0      -0.726   1.779   0.000  0.00  0.00     0.024 A 
ENDBRANCH   3  14
TORSDOF 1
