MODEL 1
REMARK VINA RESULT:      -7.7      0.000      0.000
REMARK  0 active torsions:
REMARK  status: ('A' for Active; 'I' for Inactive)
REMARK       I    between atoms: N_2  and  C_14 
ROOT
HETATM    1  O   UNK     0     138.401 142.516 146.402  0.00  0.00    -0.154 OA
HETATM    2  N   UNK     0     136.992 142.303 148.529  0.00  0.00    -0.283 N 
HETATM    3  N   UNK     0     136.426 144.098 146.792  0.00  0.00    -0.053 NA
HETATM    4  C   UNK     0     137.897 141.189 148.884  0.00  0.00     0.040 A 
HETATM    5  C   UNK     0     135.842 142.836 149.291  0.00  0.00     0.040 A 
HETATM    6  C   UNK     0     137.877 140.333 150.090  0.00  0.00    -0.010 A 
HETATM    7  C   UNK     0     135.314 142.386 150.597  0.00  0.00    -0.010 A 
HETATM    8  C   UNK     0     136.945 140.380 151.238  0.00  0.00    -0.003 A 
HETATM    9  C   UNK     0     135.805 141.293 151.463  0.00  0.00    -0.003 A 
HETATM   10  C   UNK     0     138.958 140.984 147.788  0.00  0.00     0.044 A 
HETATM   11  C   UNK     0     135.187 144.005 148.533  0.00  0.00     0.044 A 
HETATM   12  C   UNK     0     138.915 139.213 150.281  0.00  0.00     0.028 A 
HETATM   13  C   UNK     0     134.094 143.075 151.235  0.00  0.00     0.028 A 
HETATM   14  C   UNK     0     137.273 142.972 147.241  0.00  0.00     0.271 C 
HETATM   15  C   UNK     0     140.012 139.872 147.947  0.00  0.00     0.007 A 
HETATM   16  C   UNK     0     133.965 144.716 149.144  0.00  0.00     0.007 A 
HETATM   17  C   UNK     0     139.990 138.981 149.204  0.00  0.00     0.005 A 
HETATM   18  C   UNK     0     133.414 144.248 150.504  0.00  0.00     0.005 A 
ENDROOT
TORSDOF 0
ENDMDL
MODEL 2
REMARK VINA RESULT:      -7.1     25.336     26.547
REMARK  0 active torsions:
REMARK  status: ('A' for Active; 'I' for Inactive)
REMARK       I    between atoms: N_2  and  C_14 
ROOT
HETATM    1  O   UNK     0     152.929 151.325 166.810  0.00  0.00    -0.154 OA
HETATM    2  N   UNK     0     153.892 148.981 167.180  0.00  0.00    -0.283 N 
HETATM    3  N   UNK     0     152.909 149.617 164.902  0.00  0.00    -0.053 NA
HETATM    4  C   UNK     0     154.184 149.439 168.555  0.00  0.00     0.040 A 
HETATM    5  C   UNK     0     154.163 147.662 166.569  0.00  0.00     0.040 A 
HETATM    6  C   UNK     0     154.819 148.690 169.661  0.00  0.00    -0.010 A 
HETATM    7  C   UNK     0     154.793 146.474 167.185  0.00  0.00    -0.010 A 
HETATM    8  C   UNK     0     155.320 147.298 169.663  0.00  0.00    -0.003 A 
HETATM    9  C   UNK     0     155.308 146.312 168.562  0.00  0.00    -0.003 A 
HETATM   10  C   UNK     0     153.726 150.895 168.749  0.00  0.00     0.044 A 
HETATM   11  C   UNK     0     153.687 147.635 165.106  0.00  0.00     0.044 A 
HETATM   12  C   UNK     0     155.040 149.346 171.035  0.00  0.00     0.028 A 
HETATM   13  C   UNK     0     154.991 145.177 166.378  0.00  0.00     0.028 A 
HETATM   14  C   UNK     0     153.243 149.975 166.297  0.00  0.00     0.271 C 
HETATM   15  C   UNK     0     153.931 151.583 170.112  0.00  0.00     0.007 A 
HETATM   16  C   UNK     0     153.870 146.354 164.271  0.00  0.00     0.007 A 
HETATM   17  C   UNK     0     154.593 150.802 171.263  0.00  0.00     0.005 A 
HETATM   18  C   UNK     0     154.527 145.116 164.911  0.00  0.00     0.005 A 
ENDROOT
TORSDOF 0
ENDMDL
MODEL 3
REMARK VINA RESULT:      -6.9     16.164     18.882
REMARK  0 active torsions:
REMARK  status: ('A' for Active; 'I' for Inactive)
REMARK       I    between atoms: N_2  and  C_14 
ROOT
HETATM    1  O   UNK     0     151.071 135.299 146.096  0.00  0.00    -0.154 OA
HETATM    2  N   UNK     0     153.380 135.881 147.037  0.00  0.00    -0.283 N 
HETATM    3  N   UNK     0     152.375 133.563 147.454  0.00  0.00    -0.053 NA
HETATM    4  C   UNK     0     153.181 137.203 146.407  0.00  0.00     0.040 A 
HETATM    5  C   UNK     0     154.538 135.397 147.820  0.00  0.00     0.040 A 
HETATM    6  C   UNK     0     154.092 138.369 146.403  0.00  0.00    -0.010 A 
HETATM    7  C   UNK     0     155.782 136.117 148.165  0.00  0.00    -0.010 A 
HETATM    8  C   UNK     0     155.425 138.500 147.029  0.00  0.00    -0.003 A 
HETATM    9  C   UNK     0     156.177 137.498 147.813  0.00  0.00    -0.003 A 
HETATM   10  C   UNK     0     151.820 137.262 145.691  0.00  0.00     0.044 A 
HETATM   11  C   UNK     0     154.309 133.947 148.284  0.00  0.00     0.044 A 
HETATM   12  C   UNK     0     153.702 139.673 145.683  0.00  0.00     0.028 A 
HETATM   13  C   UNK     0     156.884 135.435 148.998  0.00  0.00     0.028 A 
HETATM   14  C   UNK     0     152.275 134.914 146.862  0.00  0.00     0.271 C 
HETATM   15  C   UNK     0     151.399 138.551 144.960  0.00  0.00     0.007 A 
HETATM   16  C   UNK     0     155.390 133.236 149.119  0.00  0.00     0.007 A 
HETATM   17  C   UNK     0     152.348 139.765 144.957  0.00  0.00     0.005 A 
HETATM   18  C   UNK     0     156.687 133.985 149.478  0.00  0.00     0.005 A 
ENDROOT
TORSDOF 0
ENDMDL
MODEL 4
REMARK VINA RESULT:      -6.7     79.808     80.339
REMARK  0 active torsions:
REMARK  status: ('A' for Active; 'I' for Inactive)
REMARK       I    between atoms: N_2  and  C_14 
ROOT
HETATM    1  O   UNK     0     195.332 112.780 196.722  0.00  0.00    -0.154 OA
HETATM    2  N   UNK     0     193.347 112.797 198.338  0.00  0.00    -0.283 N 
HETATM    3  N   UNK     0     194.715 114.930 197.968  0.00  0.00    -0.053 NA
HETATM    4  C   UNK     0     193.183 111.373 197.977  0.00  0.00     0.040 A 
HETATM    5  C   UNK     0     192.540 113.610 199.274  0.00  0.00     0.040 A 
HETATM    6  C   UNK     0     192.172 110.409 198.463  0.00  0.00    -0.010 A 
HETATM    7  C   UNK     0     191.371 113.198 200.080  0.00  0.00    -0.010 A 
HETATM    8  C   UNK     0     191.076 110.632 199.430  0.00  0.00    -0.003 A 
HETATM    9  C   UNK     0     190.719 111.873 200.149  0.00  0.00    -0.003 A 
HETATM   10  C   UNK     0     194.256 110.947 196.959  0.00  0.00     0.044 A 
HETATM   11  C   UNK     0     193.077 115.052 199.339  0.00  0.00     0.044 A 
HETATM   12  C   UNK     0     192.165 108.953 197.964  0.00  0.00     0.028 A 
HETATM   13  C   UNK     0     190.658 114.201 201.007  0.00  0.00     0.028 A 
HETATM   14  C   UNK     0     194.465 113.503 197.676  0.00  0.00     0.271 C 
HETATM   15  C   UNK     0     194.278 109.497 196.439  0.00  0.00     0.007 A 
HETATM   16  C   UNK     0     192.387 116.079 200.255  0.00  0.00     0.007 A 
HETATM   17  C   UNK     0     193.224 108.493 196.945  0.00  0.00     0.005 A 
HETATM   18  C   UNK     0     191.168 115.651 201.095  0.00  0.00     0.005 A 
ENDROOT
TORSDOF 0
ENDMDL
MODEL 5
REMARK VINA RESULT:      -6.5     98.985    100.950
REMARK  0 active torsions:
REMARK  status: ('A' for Active; 'I' for Inactive)
REMARK       I    between atoms: N_2  and  C_14 
ROOT
HETATM    1  O   UNK     0     190.539 127.328 229.383  0.00  0.00    -0.154 OA
HETATM    2  N   UNK     0     192.190 126.598 231.198  0.00  0.00    -0.283 N 
HETATM    3  N   UNK     0     192.859 126.464 228.730  0.00  0.00    -0.053 NA
HETATM    4  C   UNK     0     191.125 126.961 232.157  0.00  0.00     0.040 A 
HETATM    5  C   UNK     0     193.540 126.061 231.477  0.00  0.00     0.040 A 
HETATM    6  C   UNK     0     191.147 126.877 233.634  0.00  0.00    -0.010 A 
HETATM    7  C   UNK     0     194.157 125.756 232.786  0.00  0.00    -0.010 A 
HETATM    8  C   UNK     0     192.239 126.410 234.515  0.00  0.00    -0.003 A 
HETATM    9  C   UNK     0     193.578 125.912 234.138  0.00  0.00    -0.003 A 
HETATM   10  C   UNK     0     189.882 127.479 231.414  0.00  0.00     0.044 A 
HETATM   11  C   UNK     0     194.312 125.830 230.166  0.00  0.00     0.044 A 
HETATM   12  C   UNK     0     189.926 127.307 234.467  0.00  0.00     0.028 A 
HETATM   13  C   UNK     0     195.590 125.198 232.872  0.00  0.00     0.028 A 
HETATM   14  C   UNK     0     191.862 126.797 229.770  0.00  0.00     0.271 C 
HETATM   15  C   UNK     0     188.642 127.918 232.217  0.00  0.00     0.007 A 
HETATM   16  C   UNK     0     195.746 125.272 230.217  0.00  0.00     0.007 A 
HETATM   17  C   UNK     0     188.666 127.831 233.755  0.00  0.00     0.005 A 
HETATM   18  C   UNK     0     196.390 124.954 231.580  0.00  0.00     0.005 A 
ENDROOT
TORSDOF 0
ENDMDL
MODEL 6
REMARK VINA RESULT:      -6.1     54.383     55.483
REMARK  0 active torsions:
REMARK  status: ('A' for Active; 'I' for Inactive)
REMARK       I    between atoms: N_2  and  C_14 
ROOT
HETATM    1  O   UNK     0     159.378 154.006 194.953  0.00  0.00    -0.154 OA
HETATM    2  N   UNK     0     159.413 155.029 197.300  0.00  0.00    -0.283 N 
HETATM    3  N   UNK     0     158.472 152.673 196.943  0.00  0.00    -0.053 NA
HETATM    4  C   UNK     0     160.025 156.210 196.656  0.00  0.00     0.040 A 
HETATM    5  C   UNK     0     159.083 154.823 198.727  0.00  0.00     0.040 A 
HETATM    6  C   UNK     0     160.459 157.479 197.280  0.00  0.00    -0.010 A 
HETATM    7  C   UNK     0     159.284 155.750 199.862  0.00  0.00    -0.010 A 
HETATM    8  C   UNK     0     160.387 157.879 198.702  0.00  0.00    -0.003 A 
HETATM    9  C   UNK     0     159.865 157.110 199.850  0.00  0.00    -0.003 A 
HETATM   10  C   UNK     0     160.184 155.979 195.143  0.00  0.00     0.044 A 
HETATM   11  C   UNK     0     158.456 153.434 198.942  0.00  0.00     0.044 A 
HETATM   12  C   UNK     0     161.081 158.603 196.432  0.00  0.00     0.028 A 
HETATM   13  C   UNK     0     158.871 155.349 201.291  0.00  0.00     0.028 A 
HETATM   14  C   UNK     0     159.088 153.903 196.398  0.00  0.00     0.271 C 
HETATM   15  C   UNK     0     160.804 157.083 194.265  0.00  0.00     0.007 A 
HETATM   16  C   UNK     0     158.031 153.003 200.358  0.00  0.00     0.007 A 
HETATM   17  C   UNK     0     161.255 158.405 194.916  0.00  0.00     0.005 A 
HETATM   18  C   UNK     0     158.240 153.967 201.541  0.00  0.00     0.005 A 
ENDROOT
TORSDOF 0
ENDMDL
MODEL 7
REMARK VINA RESULT:      -6.1     63.401     65.126
REMARK  0 active torsions:
REMARK  status: ('A' for Active; 'I' for Inactive)
REMARK       I    between atoms: N_2  and  C_14 
ROOT
HETATM    1  O   UNK     0     179.115 143.810 197.440  0.00  0.00    -0.154 OA
HETATM    2  N   UNK     0     178.160 142.386 199.343  0.00  0.00    -0.283 N 
HETATM    3  N   UNK     0     180.647 142.229 198.749  0.00  0.00    -0.053 NA
HETATM    4  C   UNK     0     176.866 143.025 199.023  0.00  0.00     0.040 A 
HETATM    5  C   UNK     0     178.460 141.380 200.385  0.00  0.00     0.040 A 
HETATM    6  C   UNK     0     175.551 142.817 199.667  0.00  0.00    -0.010 A 
HETATM    7  C   UNK     0     177.538 140.766 201.364  0.00  0.00    -0.010 A 
HETATM    8  C   UNK     0     175.206 141.917 200.788  0.00  0.00    -0.003 A 
HETATM    9  C   UNK     0     176.090 141.005 201.544  0.00  0.00    -0.003 A 
HETATM   10  C   UNK     0     177.026 144.016 197.856  0.00  0.00     0.044 A 
HETATM   11  C   UNK     0     179.951 140.998 200.354  0.00  0.00     0.044 A 
HETATM   12  C   UNK     0     174.306 143.584 199.187  0.00  0.00     0.028 A 
HETATM   13  C   UNK     0     178.045 139.725 202.381  0.00  0.00     0.028 A 
HETATM   14  C   UNK     0     179.307 142.809 198.510  0.00  0.00     0.271 C 
HETATM   15  C   UNK     0     175.800 144.801 197.351  0.00  0.00     0.007 A 
HETATM   16  C   UNK     0     180.490 139.961 201.356  0.00  0.00     0.007 A 
HETATM   17  C   UNK     0     174.431 144.583 198.021  0.00  0.00     0.005 A 
HETATM   18  C   UNK     0     179.530 139.320 202.377  0.00  0.00     0.005 A 
ENDROOT
TORSDOF 0
ENDMDL
MODEL 8
REMARK VINA RESULT:      -6.1     89.614     91.501
REMARK  0 active torsions:
REMARK  status: ('A' for Active; 'I' for Inactive)
REMARK       I    between atoms: N_2  and  C_14 
ROOT
HETATM    1  O   UNK     0     191.085 131.794 225.956  0.00  0.00    -0.154 OA
HETATM    2  N   UNK     0     189.843 131.733 223.718  0.00  0.00    -0.283 N 
HETATM    3  N   UNK     0     190.030 129.609 225.137  0.00  0.00    -0.053 NA
HETATM    4  C   UNK     0     190.185 133.167 223.615  0.00  0.00     0.040 A 
HETATM    5  C   UNK     0     189.087 130.893 222.763  0.00  0.00     0.040 A 
HETATM    6  C   UNK     0     189.856 134.118 222.532  0.00  0.00    -0.010 A 
HETATM    7  C   UNK     0     188.487 131.284 221.469  0.00  0.00    -0.010 A 
HETATM    8  C   UNK     0     189.103 133.869 221.283  0.00  0.00    -0.003 A 
HETATM    9  C   UNK     0     188.494 132.608 220.811  0.00  0.00    -0.003 A 
HETATM   10  C   UNK     0     190.986 133.621 224.849  0.00  0.00     0.044 A 
HETATM   11  C   UNK     0     188.971 129.450 223.285  0.00  0.00     0.044 A 
HETATM   12  C   UNK     0     190.305 135.588 222.607  0.00  0.00     0.028 A 
HETATM   13  C   UNK     0     187.730 130.255 220.608  0.00  0.00     0.028 A 
HETATM   14  C   UNK     0     190.319 131.045 224.938  0.00  0.00     0.271 C 
HETATM   15  C   UNK     0     191.452 135.086 224.956  0.00  0.00     0.007 A 
HETATM   16  C   UNK     0     188.221 128.397 222.448  0.00  0.00     0.007 A 
HETATM   17  C   UNK     0     191.108 136.076 223.827  0.00  0.00     0.005 A 
HETATM   18  C   UNK     0     187.596 128.803 221.100  0.00  0.00     0.005 A 
ENDROOT
TORSDOF 0
ENDMDL
MODEL 9
REMARK VINA RESULT:      -6.0     97.612     99.482
REMARK  0 active torsions:
REMARK  status: ('A' for Active; 'I' for Inactive)
REMARK       I    between atoms: N_2  and  C_14 
ROOT
HETATM    1  O   UNK     0     190.903 129.834 233.691  0.00  0.00    -0.154 OA
HETATM    2  N   UNK     0     191.494 128.997 231.344  0.00  0.00    -0.283 N 
HETATM    3  N   UNK     0     190.135 131.150 231.632  0.00  0.00    -0.053 NA
HETATM    4  C   UNK     0     192.174 127.881 232.034  0.00  0.00     0.040 A 
HETATM    5  C   UNK     0     191.375 129.250 229.891  0.00  0.00     0.040 A 
HETATM    6  C   UNK     0     192.906 126.741 231.441  0.00  0.00    -0.010 A 
HETATM    7  C   UNK     0     191.910 128.447 228.770  0.00  0.00    -0.010 A 
HETATM    8  C   UNK     0     193.137 126.435 230.013  0.00  0.00    -0.003 A 
HETATM    9  C   UNK     0     192.694 127.194 228.825  0.00  0.00    -0.003 A 
HETATM   10  C   UNK     0     192.041 128.027 233.560  0.00  0.00     0.044 A 
HETATM   11  C   UNK     0     190.574 130.538 229.630  0.00  0.00     0.044 A 
HETATM   12  C   UNK     0     193.554 125.668 232.335  0.00  0.00     0.028 A 
HETATM   13  C   UNK     0     191.680 128.879 227.310  0.00  0.00     0.028 A 
HETATM   14  C   UNK     0     190.844 129.994 232.223  0.00  0.00     0.271 C 
HETATM   15  C   UNK     0     192.678 126.971 234.484  0.00  0.00     0.007 A 
HETATM   16  C   UNK     0     190.326 130.998 228.181  0.00  0.00     0.007 A 
HETATM   17  C   UNK     0     193.440 125.783 233.866  0.00  0.00     0.005 A 
HETATM   18  C   UNK     0     190.883 130.162 227.013  0.00  0.00     0.005 A 
ENDROOT
TORSDOF 0
ENDMDL
MODEL 10
REMARK VINA RESULT:      -6.0     91.630     93.490
REMARK  0 active torsions:
REMARK  status: ('A' for Active; 'I' for Inactive)
REMARK       I    between atoms: N_2  and  C_14 
ROOT
HETATM    1  O   UNK     0     192.155 132.211 227.678  0.00  0.00    -0.154 OA
HETATM    2  N   UNK     0     190.968 132.432 225.420  0.00  0.00    -0.283 N 
HETATM    3  N   UNK     0     191.025 130.171 226.621  0.00  0.00    -0.053 NA
HETATM    4  C   UNK     0     191.376 133.852 225.470  0.00  0.00     0.040 A 
HETATM    5  C   UNK     0     190.200 131.729 224.369  0.00  0.00     0.040 A 
HETATM    6  C   UNK     0     191.117 134.921 224.481  0.00  0.00    -0.010 A 
HETATM    7  C   UNK     0     189.651 132.274 223.109  0.00  0.00    -0.010 A 
HETATM    8  C   UNK     0     190.386 134.833 223.199  0.00  0.00    -0.003 A 
HETATM    9  C   UNK     0     189.733 133.656 222.589  0.00  0.00    -0.003 A 
HETATM   10  C   UNK     0     192.165 134.143 226.759  0.00  0.00     0.044 A 
HETATM   11  C   UNK     0     190.008 130.248 224.740  0.00  0.00     0.044 A 
HETATM   12  C   UNK     0     191.629 136.354 224.714  0.00  0.00     0.028 A 
HETATM   13  C   UNK     0     188.871 131.374 222.133  0.00  0.00     0.028 A 
HETATM   14  C   UNK     0     191.383 131.605 226.573  0.00  0.00     0.271 C 
HETATM   15  C   UNK     0     192.693 135.566 227.024  0.00  0.00     0.007 A 
HETATM   16  C   UNK     0     189.233 129.320 223.786  0.00  0.00     0.007 A 
HETATM   17  C   UNK     0     192.422 136.679 225.993  0.00  0.00     0.005 A 
HETATM   18  C   UNK     0     188.660 129.887 222.473  0.00  0.00     0.005 A 
ENDROOT
TORSDOF 0
ENDMDL
