MODEL 1
REMARK VINA RESULT:      -7.7      0.000      0.000
REMARK  9 active torsions:
REMARK  status: ('A' for Active; 'I' for Inactive)
REMARK    1  A    between atoms: C_3  and  C_21 
REMARK    2  A    between atoms: C_4  and  C_14 
REMARK    3  A    between atoms: C_7  and  N_9 
REMARK       I    between atoms: N_9  and  C_10 
REMARK    4  A    between atoms: C_10  and  C_13 
REMARK    5  A    between atoms: C_13  and  C_15 
REMARK    6  A    between atoms: C_13  and  N_20 
REMARK    7  A    between atoms: C_14  and  S_24 
REMARK    8  A    between atoms: N_20  and  O_35 
REMARK    9  A    between atoms: S_24  and  C_25 
ROOT
HETATM    1  C   UNK     0     157.888 159.566 197.125  0.00  0.00     0.308 A 
HETATM    2  N   UNK     0     159.123 158.962 196.626  0.00  0.00    -0.297 N 
HETATM    3  C   UNK     0     159.438 157.449 196.979  0.00  0.00     0.121 A 
HETATM    4  C   UNK     0     158.471 156.637 197.824  0.00  0.00    -0.002 A 
HETATM    5  C   UNK     0     157.236 157.241 198.323  0.00  0.00     0.065 A 
HETATM    6  S   UNK     0     156.902 158.688 198.004  0.00  0.00    -0.194 SA
HETATM    7  C   UNK     0     158.260 160.894 196.440  0.00  0.00     0.125 A 
HETATM    8  C   UNK     0     159.496 160.290 195.941  0.00  0.00     0.211 A 
HETATM    9  O   UNK     0     160.463 161.101 195.097  0.00  0.00    -0.170 OA
ENDROOT
BRANCH   7  10
HETATM   10  N   UNK     0     157.927 162.341 196.121  0.00  0.00    -0.217 NA
HETATM   11  C   UNK     0     157.746 163.325 197.263  0.00  0.00     0.234 C 
HETATM   12  O   UNK     0     157.890 162.886 198.651  0.00  0.00    -0.167 OA
BRANCH  11  13
HETATM   13  C   UNK     0     157.412 164.772 196.944  0.00  0.00     0.165 C 
BRANCH  13  14
HETATM   14  C   UNK     0     158.518 165.900 197.075  0.00  0.00     0.091 A 
HETATM   15  C   UNK     0     158.244 167.152 196.221  0.00  0.00     0.108 A 
HETATM   16  S   UNK     0     159.415 168.118 196.482  0.00  0.00    -0.072 SA
HETATM   17  C   UNK     0     160.451 167.464 197.523  0.00  0.00     0.456 A 
HETATM   18  N   UNK     0     159.891 166.078 197.894  0.00  0.00    -0.229 NA
HETATM   19  N   UNK     0     161.750 168.104 198.044  0.00  0.00     0.656 N 
ENDBRANCH  13  14
BRANCH  13  20
HETATM   20  N   UNK     0     155.923 165.184 196.466  0.00  0.00    -0.126 NA
BRANCH  20  21
HETATM   21  O   UNK     0     154.727 165.048 197.428  0.00  0.00    -0.234 OA
HETATM   22  C   UNK     0     154.045 163.684 197.638  0.00  0.00     0.211 C 
ENDBRANCH  20  21
ENDBRANCH  13  20
ENDBRANCH  11  13
ENDBRANCH   7  10
BRANCH   3  23
HETATM   23  C   UNK     0     160.739 156.813 196.454  0.00  0.00     0.227 C 
HETATM   24  O   UNK     0     160.760 155.732 195.331  0.00  0.00    -0.643 OA
HETATM   25  O   UNK     0     162.125 157.270 197.074  0.00  0.00    -0.643 OA
ENDBRANCH   3  23
BRANCH   4  26
HETATM   26  C   UNK     0     158.870 155.159 198.117  0.00  0.00     0.089 C 
BRANCH  26  27
HETATM   27  S   UNK     0     158.061 154.084 197.413  0.00  0.00    -0.071 SA
BRANCH  27  28
HETATM   28  C   UNK     0     158.787 153.035 196.589  0.00  0.00     0.190 A 
HETATM   29  N   UNK     0     159.744 152.035 197.265  0.00  0.00    -0.192 NA
HETATM   30  C   UNK     0     160.470 150.986 196.441  0.00  0.00     0.260 A 
HETATM   31  C   UNK     0     160.253 150.904 194.872  0.00  0.00     0.274 A 
HETATM   32  O   UNK     0     161.427 149.987 197.117  0.00  0.00    -0.165 OA
HETATM   33  N   UNK     0     159.296 151.903 194.196  0.00  0.00    -0.136 NA
HETATM   34  O   UNK     0     160.979 149.855 194.048  0.00  0.00    -0.164 OA
HETATM   35  N   UNK     0     158.555 152.985 195.089  0.00  0.00    -0.225 N 
HETATM   36  C   UNK     0     157.598 153.984 194.412  0.00  0.00     0.156 C 
ENDBRANCH  27  28
ENDBRANCH  26  27
ENDBRANCH   4  26
TORSDOF 9
ENDMDL
MODEL 2
REMARK VINA RESULT:      -7.4      2.062      2.733
REMARK  9 active torsions:
REMARK  status: ('A' for Active; 'I' for Inactive)
REMARK    1  A    between atoms: C_3  and  C_21 
REMARK    2  A    between atoms: C_4  and  C_14 
REMARK    3  A    between atoms: C_7  and  N_9 
REMARK       I    between atoms: N_9  and  C_10 
REMARK    4  A    between atoms: C_10  and  C_13 
REMARK    5  A    between atoms: C_13  and  C_15 
REMARK    6  A    between atoms: C_13  and  N_20 
REMARK    7  A    between atoms: C_14  and  S_24 
REMARK    8  A    between atoms: N_20  and  O_35 
REMARK    9  A    between atoms: S_24  and  C_25 
ROOT
HETATM    1  C   UNK     0     157.860 159.385 196.257  0.00  0.00     0.308 A 
HETATM    2  N   UNK     0     159.242 158.991 195.980  0.00  0.00    -0.297 N 
HETATM    3  C   UNK     0     159.639 157.458 196.075  0.00  0.00     0.121 A 
HETATM    4  C   UNK     0     158.600 156.415 196.447  0.00  0.00    -0.002 A 
HETATM    5  C   UNK     0     157.219 156.809 196.723  0.00  0.00     0.065 A 
HETATM    6  S   UNK     0     156.803 158.268 196.642  0.00  0.00    -0.194 SA
HETATM    7  C   UNK     0     158.227 160.856 195.990  0.00  0.00     0.125 A 
HETATM    8  C   UNK     0     159.609 160.462 195.714  0.00  0.00     0.211 A 
HETATM    9  O   UNK     0     160.647 161.506 195.342  0.00  0.00    -0.170 OA
ENDROOT
BRANCH   7  10
HETATM   10  N   UNK     0     157.812 162.315 195.909  0.00  0.00    -0.217 NA
HETATM   11  C   UNK     0     157.646 163.108 197.193  0.00  0.00     0.234 C 
HETATM   12  O   UNK     0     157.883 162.475 198.491  0.00  0.00    -0.167 OA
BRANCH  11  13
HETATM   13  C   UNK     0     157.230 164.566 197.112  0.00  0.00     0.165 C 
BRANCH  13  14
HETATM   14  C   UNK     0     158.319 165.717 197.175  0.00  0.00     0.091 A 
HETATM   15  C   UNK     0     157.936 166.987 196.392  0.00  0.00     0.108 A 
HETATM   16  S   UNK     0     159.105 167.973 196.573  0.00  0.00    -0.072 SA
HETATM   17  C   UNK     0     160.250 167.314 197.489  0.00  0.00     0.456 A 
HETATM   18  N   UNK     0     159.759 165.904 197.865  0.00  0.00    -0.229 NA
HETATM   19  N   UNK     0     161.579 167.970 197.906  0.00  0.00     0.656 N 
ENDBRANCH  13  14
BRANCH  13  20
HETATM   20  N   UNK     0     155.671 164.967 196.960  0.00  0.00    -0.126 NA
BRANCH  20  21
HETATM   21  O   UNK     0     154.864 165.448 198.182  0.00  0.00    -0.234 OA
HETATM   22  C   UNK     0     154.739 164.560 199.434  0.00  0.00     0.211 C 
ENDBRANCH  20  21
ENDBRANCH  13  20
ENDBRANCH  11  13
ENDBRANCH   7  10
BRANCH   3  23
HETATM   23  C   UNK     0     161.093 157.044 195.784  0.00  0.00     0.227 C 
HETATM   24  O   UNK     0     161.608 156.707 194.352  0.00  0.00    -0.643 OA
HETATM   25  O   UNK     0     162.123 156.951 196.987  0.00  0.00    -0.643 OA
ENDBRANCH   3  23
BRANCH   4  26
HETATM   26  C   UNK     0     159.089 154.936 196.514  0.00  0.00     0.089 C 
BRANCH  26  27
HETATM   27  S   UNK     0     159.215 154.200 195.191  0.00  0.00    -0.071 SA
BRANCH  27  28
HETATM   28  C   UNK     0     158.009 153.463 194.638  0.00  0.00     0.190 A 
HETATM   29  N   UNK     0     156.714 154.226 194.300  0.00  0.00    -0.192 NA
HETATM   30  C   UNK     0     155.507 153.488 193.748  0.00  0.00     0.260 A 
HETATM   31  C   UNK     0     155.562 151.922 193.510  0.00  0.00     0.274 A 
HETATM   32  O   UNK     0     154.213 154.251 193.410  0.00  0.00    -0.165 OA
HETATM   33  N   UNK     0     156.856 151.158 193.848  0.00  0.00    -0.136 NA
HETATM   34  O   UNK     0     154.355 151.184 192.957  0.00  0.00    -0.164 OA
HETATM   35  N   UNK     0     158.096 151.962 194.423  0.00  0.00    -0.225 N 
HETATM   36  C   UNK     0     159.390 151.199 194.761  0.00  0.00     0.156 C 
ENDBRANCH  27  28
ENDBRANCH  26  27
ENDBRANCH   4  26
TORSDOF 9
ENDMDL
MODEL 3
REMARK VINA RESULT:      -7.3      2.973      4.500
REMARK  9 active torsions:
REMARK  status: ('A' for Active; 'I' for Inactive)
REMARK    1  A    between atoms: C_3  and  C_21 
REMARK    2  A    between atoms: C_4  and  C_14 
REMARK    3  A    between atoms: C_7  and  N_9 
REMARK       I    between atoms: N_9  and  C_10 
REMARK    4  A    between atoms: C_10  and  C_13 
REMARK    5  A    between atoms: C_13  and  C_15 
REMARK    6  A    between atoms: C_13  and  N_20 
REMARK    7  A    between atoms: C_14  and  S_24 
REMARK    8  A    between atoms: N_20  and  O_35 
REMARK    9  A    between atoms: S_24  and  C_25 
ROOT
HETATM    1  C   UNK     0     158.083 159.308 196.533  0.00  0.00     0.308 A 
HETATM    2  N   UNK     0     159.341 158.781 196.003  0.00  0.00    -0.297 N 
HETATM    3  C   UNK     0     159.610 157.220 196.070  0.00  0.00     0.121 A 
HETATM    4  C   UNK     0     158.577 156.285 196.675  0.00  0.00    -0.002 A 
HETATM    5  C   UNK     0     157.319 156.812 197.204  0.00  0.00     0.065 A 
HETATM    6  S   UNK     0     157.028 158.302 197.156  0.00  0.00    -0.194 SA
HETATM    7  C   UNK     0     158.520 160.734 196.149  0.00  0.00     0.125 A 
HETATM    8  C   UNK     0     159.777 160.207 195.620  0.00  0.00     0.211 A 
HETATM    9  O   UNK     0     160.811 161.142 195.015  0.00  0.00    -0.170 OA
ENDROOT
BRANCH   7  10
HETATM   10  N   UNK     0     158.229 162.224 196.101  0.00  0.00    -0.217 NA
HETATM   11  C   UNK     0     157.936 162.961 197.397  0.00  0.00     0.234 C 
HETATM   12  O   UNK     0     157.935 162.245 198.673  0.00  0.00    -0.167 OA
BRANCH  11  13
HETATM   13  C   UNK     0     157.645 164.450 197.349  0.00  0.00     0.165 C 
BRANCH  13  14
HETATM   14  C   UNK     0     156.181 164.974 197.041  0.00  0.00     0.091 A 
HETATM   15  C   UNK     0     155.187 163.866 196.647  0.00  0.00     0.108 A 
HETATM   16  S   UNK     0     153.840 164.566 196.391  0.00  0.00    -0.072 SA
HETATM   17  C   UNK     0     153.984 166.150 196.626  0.00  0.00     0.456 A 
HETATM   18  N   UNK     0     155.448 166.405 197.033  0.00  0.00    -0.229 NA
HETATM   19  N   UNK     0     152.872 167.203 196.474  0.00  0.00     0.656 N 
ENDBRANCH  13  14
BRANCH  13  20
HETATM   20  N   UNK     0     158.825 165.525 197.613  0.00  0.00    -0.126 NA
BRANCH  20  21
HETATM   21  O   UNK     0     158.504 167.029 197.714  0.00  0.00    -0.234 OA
HETATM   22  C   UNK     0     159.397 168.068 197.011  0.00  0.00     0.211 C 
ENDBRANCH  20  21
ENDBRANCH  13  20
ENDBRANCH  11  13
ENDBRANCH   7  10
BRANCH   3  23
HETATM   23  C   UNK     0     160.934 156.665 195.513  0.00  0.00     0.227 C 
HETATM   24  O   UNK     0     162.162 156.336 196.417  0.00  0.00    -0.643 OA
HETATM   25  O   UNK     0     161.068 156.412 193.954  0.00  0.00    -0.643 OA
ENDBRANCH   3  23
BRANCH   4  26
HETATM   26  C   UNK     0     158.934 154.767 196.695  0.00  0.00     0.089 C 
BRANCH  26  27
HETATM   27  S   UNK     0     159.762 154.278 197.870  0.00  0.00    -0.071 SA
BRANCH  27  28
HETATM   28  C   UNK     0     159.089 154.091 199.219  0.00  0.00     0.190 A 
HETATM   29  N   UNK     0     158.315 152.797 199.532  0.00  0.00    -0.192 NA
HETATM   30  C   UNK     0     157.642 152.610 200.881  0.00  0.00     0.260 A 
HETATM   31  C   UNK     0     157.727 153.743 201.986  0.00  0.00     0.274 A 
HETATM   32  O   UNK     0     156.867 151.316 201.194  0.00  0.00    -0.165 OA
HETATM   33  N   UNK     0     158.502 155.037 201.673  0.00  0.00    -0.136 NA
HETATM   34  O   UNK     0     157.055 153.556 203.335  0.00  0.00    -0.164 OA
HETATM   35  N   UNK     0     159.191 155.197 200.254  0.00  0.00    -0.225 N 
HETATM   36  C   UNK     0     159.966 156.491 199.941  0.00  0.00     0.156 C 
ENDBRANCH  27  28
ENDBRANCH  26  27
ENDBRANCH   4  26
TORSDOF 9
ENDMDL
MODEL 4
REMARK VINA RESULT:      -7.2     36.603     41.220
REMARK  9 active torsions:
REMARK  status: ('A' for Active; 'I' for Inactive)
REMARK    1  A    between atoms: C_3  and  C_21 
REMARK    2  A    between atoms: C_4  and  C_14 
REMARK    3  A    between atoms: C_7  and  N_9 
REMARK       I    between atoms: N_9  and  C_10 
REMARK    4  A    between atoms: C_10  and  C_13 
REMARK    5  A    between atoms: C_13  and  C_15 
REMARK    6  A    between atoms: C_13  and  N_20 
REMARK    7  A    between atoms: C_14  and  S_24 
REMARK    8  A    between atoms: N_20  and  O_35 
REMARK    9  A    between atoms: S_24  and  C_25 
ROOT
HETATM    1  C   UNK     0     149.603 129.168 169.473  0.00  0.00     0.308 A 
HETATM    2  N   UNK     0     149.856 130.341 170.310  0.00  0.00    -0.297 N 
HETATM    3  C   UNK     0     151.353 130.786 170.579  0.00  0.00     0.121 A 
HETATM    4  C   UNK     0     152.509 130.007 169.977  0.00  0.00    -0.002 A 
HETATM    5  C   UNK     0     152.256 128.833 169.140  0.00  0.00     0.065 A 
HETATM    6  S   UNK     0     150.834 128.378 168.861  0.00  0.00    -0.194 SA
HETATM    7  C   UNK     0     148.087 129.359 169.663  0.00  0.00     0.125 A 
HETATM    8  C   UNK     0     148.339 130.532 170.500  0.00  0.00     0.211 A 
HETATM    9  O   UNK     0     147.184 131.311 171.102  0.00  0.00    -0.170 OA
ENDROOT
BRANCH   7  10
HETATM   10  N   UNK     0     146.665 128.903 169.385  0.00  0.00    -0.217 NA
HETATM   11  C   UNK     0     146.044 127.837 170.271  0.00  0.00     0.234 C 
HETATM   12  O   UNK     0     146.806 127.257 171.377  0.00  0.00    -0.167 OA
BRANCH  11  13
HETATM   13  C   UNK     0     144.622 127.382 169.992  0.00  0.00     0.165 C 
BRANCH  13  14
HETATM   14  C   UNK     0     143.423 128.418 170.039  0.00  0.00     0.091 A 
HETATM   15  C   UNK     0     142.906 128.844 168.652  0.00  0.00     0.108 A 
HETATM   16  S   UNK     0     141.758 129.838 168.906  0.00  0.00    -0.072 SA
HETATM   17  C   UNK     0     141.544 130.045 170.486  0.00  0.00     0.456 A 
HETATM   18  N   UNK     0     142.585 129.158 171.194  0.00  0.00    -0.229 NA
HETATM   19  N   UNK     0     140.499 130.956 171.156  0.00  0.00     0.656 N 
ENDBRANCH  13  14
BRANCH  13  20
HETATM   20  N   UNK     0     144.311 125.835 169.643  0.00  0.00    -0.126 NA
BRANCH  20  21
HETATM   21  O   UNK     0     144.274 125.355 168.179  0.00  0.00    -0.234 OA
HETATM   22  C   UNK     0     143.183 124.378 167.704  0.00  0.00     0.211 C 
ENDBRANCH  20  21
ENDBRANCH  13  20
ENDBRANCH  11  13
ENDBRANCH   7  10
BRANCH   3  23
HETATM   23  C   UNK     0     151.619 132.021 171.460  0.00  0.00     0.227 C 
HETATM   24  O   UNK     0     152.401 133.271 170.952  0.00  0.00    -0.643 OA
HETATM   25  O   UNK     0     151.080 132.034 172.951  0.00  0.00    -0.643 OA
ENDBRANCH   3  23
BRANCH   4  26
HETATM   26  C   UNK     0     153.944 130.523 170.300  0.00  0.00     0.089 C 
BRANCH  26  27
HETATM   27  S   UNK     0     154.730 129.745 171.340  0.00  0.00    -0.071 SA
BRANCH  27  28
HETATM   28  C   UNK     0     154.181 129.636 172.751  0.00  0.00     0.190 A 
HETATM   29  N   UNK     0     154.288 130.825 173.724  0.00  0.00    -0.192 NA
HETATM   30  C   UNK     0     153.739 130.717 175.136  0.00  0.00     0.260 A 
HETATM   31  C   UNK     0     153.046 129.378 175.629  0.00  0.00     0.274 A 
HETATM   32  O   UNK     0     153.846 131.905 176.109  0.00  0.00    -0.165 OA
HETATM   33  N   UNK     0     152.939 128.189 174.656  0.00  0.00    -0.136 NA
HETATM   34  O   UNK     0     152.497 129.270 177.041  0.00  0.00    -0.164 OA
HETATM   35  N   UNK     0     153.524 128.339 173.190  0.00  0.00    -0.225 N 
HETATM   36  C   UNK     0     153.417 127.150 172.217  0.00  0.00     0.156 C 
ENDBRANCH  27  28
ENDBRANCH  26  27
ENDBRANCH   4  26
TORSDOF 9
ENDMDL
MODEL 5
REMARK VINA RESULT:      -7.0     34.574     36.620
REMARK  9 active torsions:
REMARK  status: ('A' for Active; 'I' for Inactive)
REMARK    1  A    between atoms: C_3  and  C_21 
REMARK    2  A    between atoms: C_4  and  C_14 
REMARK    3  A    between atoms: C_7  and  N_9 
REMARK       I    between atoms: N_9  and  C_10 
REMARK    4  A    between atoms: C_10  and  C_13 
REMARK    5  A    between atoms: C_13  and  C_15 
REMARK    6  A    between atoms: C_13  and  N_20 
REMARK    7  A    between atoms: C_14  and  S_24 
REMARK    8  A    between atoms: N_20  and  O_35 
REMARK    9  A    between atoms: S_24  and  C_25 
ROOT
HETATM    1  C   UNK     0     163.368 134.731 224.128  0.00  0.00     0.308 A 
HETATM    2  N   UNK     0     161.963 134.353 224.280  0.00  0.00    -0.297 N 
HETATM    3  C   UNK     0     161.327 133.325 223.254  0.00  0.00     0.121 A 
HETATM    4  C   UNK     0     162.164 132.741 222.129  0.00  0.00    -0.002 A 
HETATM    5  C   UNK     0     163.570 133.119 221.978  0.00  0.00     0.065 A 
HETATM    6  S   UNK     0     164.211 134.101 222.943  0.00  0.00    -0.194 SA
HETATM    7  C   UNK     0     163.253 135.652 225.357  0.00  0.00     0.125 A 
HETATM    8  C   UNK     0     161.847 135.274 225.509  0.00  0.00     0.211 A 
HETATM    9  O   UNK     0     161.010 135.857 226.633  0.00  0.00    -0.170 OA
ENDROOT
BRANCH   7  10
HETATM   10  N   UNK     0     163.894 136.634 226.322  0.00  0.00    -0.217 NA
HETATM   11  C   UNK     0     165.053 137.489 225.842  0.00  0.00     0.234 C 
HETATM   12  O   UNK     0     165.545 137.369 224.469  0.00  0.00    -0.167 OA
BRANCH  11  13
HETATM   13  C   UNK     0     165.695 138.471 226.807  0.00  0.00     0.165 C 
BRANCH  13  14
HETATM   14  C   UNK     0     164.853 139.671 227.411  0.00  0.00     0.091 A 
HETATM   15  C   UNK     0     164.401 139.451 228.867  0.00  0.00     0.108 A 
HETATM   16  S   UNK     0     163.609 140.709 229.267  0.00  0.00    -0.072 SA
HETATM   17  C   UNK     0     163.558 141.747 228.040  0.00  0.00     0.456 A 
HETATM   18  N   UNK     0     164.336 141.098 226.880  0.00  0.00    -0.229 NA
HETATM   19  N   UNK     0     162.865 143.121 228.032  0.00  0.00     0.656 N 
ENDBRANCH  13  14
BRANCH  13  20
HETATM   20  N   UNK     0     167.246 138.307 227.232  0.00  0.00    -0.126 NA
BRANCH  20  21
HETATM   21  O   UNK     0     167.780 136.952 227.736  0.00  0.00    -0.234 OA
HETATM   22  C   UNK     0     168.957 136.262 227.021  0.00  0.00     0.211 C 
ENDBRANCH  20  21
ENDBRANCH  13  20
ENDBRANCH  11  13
ENDBRANCH   7  10
BRANCH   3  23
HETATM   23  C   UNK     0     159.848 132.927 223.413  0.00  0.00     0.227 C 
HETATM   24  O   UNK     0     159.337 132.012 224.568  0.00  0.00    -0.643 OA
HETATM   25  O   UNK     0     158.788 133.465 222.364  0.00  0.00    -0.643 OA
ENDBRANCH   3  23
BRANCH   4  26
HETATM   26  C   UNK     0     161.449 131.739 221.173  0.00  0.00     0.089 C 
BRANCH  26  27
HETATM   27  S   UNK     0     161.162 132.230 219.764  0.00  0.00    -0.071 SA
BRANCH  27  28
HETATM   28  C   UNK     0     161.829 131.534 218.590  0.00  0.00     0.190 A 
HETATM   29  N   UNK     0     161.366 130.134 218.147  0.00  0.00    -0.192 NA
HETATM   30  C   UNK     0     162.032 129.438 216.973  0.00  0.00     0.260 A 
HETATM   31  C   UNK     0     163.215 130.143 216.187  0.00  0.00     0.274 A 
HETATM   32  O   UNK     0     161.570 128.038 216.530  0.00  0.00    -0.165 OA
HETATM   33  N   UNK     0     163.678 131.544 216.630  0.00  0.00    -0.136 NA
HETATM   34  O   UNK     0     163.881 129.448 215.013  0.00  0.00    -0.164 OA
HETATM   35  N   UNK     0     162.958 132.239 217.860  0.00  0.00    -0.225 N 
HETATM   36  C   UNK     0     163.421 133.639 218.303  0.00  0.00     0.156 C 
ENDBRANCH  27  28
ENDBRANCH  26  27
ENDBRANCH   4  26
TORSDOF 9
ENDMDL
MODEL 6
REMARK VINA RESULT:      -7.0     51.878     54.904
REMARK  9 active torsions:
REMARK  status: ('A' for Active; 'I' for Inactive)
REMARK    1  A    between atoms: C_3  and  C_21 
REMARK    2  A    between atoms: C_4  and  C_14 
REMARK    3  A    between atoms: C_7  and  N_9 
REMARK       I    between atoms: N_9  and  C_10 
REMARK    4  A    between atoms: C_10  and  C_13 
REMARK    5  A    between atoms: C_13  and  C_15 
REMARK    6  A    between atoms: C_13  and  N_20 
REMARK    7  A    between atoms: C_14  and  S_24 
REMARK    8  A    between atoms: N_20  and  O_35 
REMARK    9  A    between atoms: S_24  and  C_25 
ROOT
HETATM    1  C   UNK     0     186.659 176.619 153.190  0.00  0.00     0.308 A 
HETATM    2  N   UNK     0     188.015 177.164 153.256  0.00  0.00    -0.297 N 
HETATM    3  C   UNK     0     188.691 177.708 151.929  0.00  0.00     0.121 A 
HETATM    4  C   UNK     0     187.942 177.665 150.609  0.00  0.00    -0.002 A 
HETATM    5  C   UNK     0     186.586 177.120 150.543  0.00  0.00     0.065 A 
HETATM    6  S   UNK     0     185.908 176.590 151.794  0.00  0.00    -0.194 SA
HETATM    7  C   UNK     0     186.701 176.333 154.703  0.00  0.00     0.125 A 
HETATM    8  C   UNK     0     188.057 176.878 154.769  0.00  0.00     0.211 A 
HETATM    9  O   UNK     0     188.806 176.922 156.089  0.00  0.00    -0.170 OA
ENDROOT
BRANCH   7  10
HETATM   10  N   UNK     0     186.023 175.803 155.954  0.00  0.00    -0.217 NA
HETATM   11  C   UNK     0     184.551 176.103 156.179  0.00  0.00     0.234 C 
HETATM   12  O   UNK     0     183.797 176.890 155.203  0.00  0.00    -0.167 OA
BRANCH  11  13
HETATM   13  C   UNK     0     183.873 175.573 157.430  0.00  0.00     0.165 C 
BRANCH  13  14
HETATM   14  C   UNK     0     183.711 176.495 158.709  0.00  0.00     0.091 A 
HETATM   15  C   UNK     0     184.825 176.317 159.757  0.00  0.00     0.108 A 
HETATM   16  S   UNK     0     184.495 177.286 160.908  0.00  0.00    -0.072 SA
HETATM   17  C   UNK     0     183.143 178.093 160.581  0.00  0.00     0.456 A 
HETATM   18  N   UNK     0     182.654 177.599 159.207  0.00  0.00    -0.229 NA
HETATM   19  N   UNK     0     182.473 179.154 161.473  0.00  0.00     0.656 N 
ENDBRANCH  13  14
BRANCH  13  20
HETATM   20  N   UNK     0     183.305 174.059 157.476  0.00  0.00    -0.126 NA
BRANCH  20  21
HETATM   21  O   UNK     0     182.142 173.632 156.560  0.00  0.00    -0.234 OA
HETATM   22  C   UNK     0     182.394 173.310 155.076  0.00  0.00     0.211 C 
ENDBRANCH  20  21
ENDBRANCH  13  20
ENDBRANCH  11  13
ENDBRANCH   7  10
BRANCH   3  23
HETATM   23  C   UNK     0     190.119 178.282 151.998  0.00  0.00     0.227 C 
HETATM   24  O   UNK     0     191.392 177.415 151.757  0.00  0.00    -0.643 OA
HETATM   25  O   UNK     0     190.315 179.820 152.328  0.00  0.00    -0.643 OA
ENDBRANCH   3  23
BRANCH   4  26
HETATM   26  C   UNK     0     188.692 178.223 149.361  0.00  0.00     0.089 C 
BRANCH  26  27
HETATM   27  S   UNK     0     188.284 179.606 148.884  0.00  0.00    -0.071 SA
BRANCH  27  28
HETATM   28  C   UNK     0     186.827 180.022 148.988  0.00  0.00     0.190 A 
HETATM   29  N   UNK     0     185.790 179.494 147.980  0.00  0.00    -0.192 NA
HETATM   30  C   UNK     0     184.333 179.910 148.084  0.00  0.00     0.260 A 
HETATM   31  C   UNK     0     183.858 180.894 149.232  0.00  0.00     0.274 A 
HETATM   32  O   UNK     0     183.296 179.382 147.075  0.00  0.00    -0.165 OA
HETATM   33  N   UNK     0     184.895 181.423 150.241  0.00  0.00    -0.136 NA
HETATM   34  O   UNK     0     182.401 181.311 149.336  0.00  0.00    -0.164 OA
HETATM   35  N   UNK     0     186.407 180.967 150.101  0.00  0.00    -0.225 N 
HETATM   36  C   UNK     0     187.443 181.495 151.110  0.00  0.00     0.156 C 
ENDBRANCH  27  28
ENDBRANCH  26  27
ENDBRANCH   4  26
TORSDOF 9
ENDMDL
MODEL 7
REMARK VINA RESULT:      -6.7     40.744     43.564
REMARK  9 active torsions:
REMARK  status: ('A' for Active; 'I' for Inactive)
REMARK    1  A    between atoms: C_3  and  C_21 
REMARK    2  A    between atoms: C_4  and  C_14 
REMARK    3  A    between atoms: C_7  and  N_9 
REMARK       I    between atoms: N_9  and  C_10 
REMARK    4  A    between atoms: C_10  and  C_13 
REMARK    5  A    between atoms: C_13  and  C_15 
REMARK    6  A    between atoms: C_13  and  N_20 
REMARK    7  A    between atoms: C_14  and  S_24 
REMARK    8  A    between atoms: N_20  and  O_35 
REMARK    9  A    between atoms: S_24  and  C_25 
ROOT
HETATM    1  C   UNK     0     148.912 127.725 168.307  0.00  0.00     0.308 A 
HETATM    2  N   UNK     0     148.615 128.998 168.964  0.00  0.00    -0.297 N 
HETATM    3  C   UNK     0     147.296 129.125 169.835  0.00  0.00     0.121 A 
HETATM    4  C   UNK     0     146.355 127.943 169.985  0.00  0.00    -0.002 A 
HETATM    5  C   UNK     0     146.652 126.670 169.327  0.00  0.00     0.065 A 
HETATM    6  S   UNK     0     147.907 126.513 168.486  0.00  0.00    -0.194 SA
HETATM    7  C   UNK     0     150.204 128.328 167.724  0.00  0.00     0.125 A 
HETATM    8  C   UNK     0     149.906 129.601 168.381  0.00  0.00     0.211 A 
HETATM    9  O   UNK     0     150.847 130.784 168.232  0.00  0.00    -0.170 OA
ENDROOT
BRANCH   7  10
HETATM   10  N   UNK     0     151.458 128.171 166.883  0.00  0.00    -0.217 NA
HETATM   11  C   UNK     0     152.733 127.677 167.544  0.00  0.00     0.234 C 
HETATM   12  O   UNK     0     152.752 127.357 168.971  0.00  0.00    -0.167 OA
BRANCH  11  13
HETATM   13  C   UNK     0     153.988 127.520 166.702  0.00  0.00     0.165 C 
BRANCH  13  14
HETATM   14  C   UNK     0     155.291 128.359 167.037  0.00  0.00     0.091 A 
HETATM   15  C   UNK     0     156.595 127.543 166.978  0.00  0.00     0.108 A 
HETATM   16  S   UNK     0     157.732 128.522 167.328  0.00  0.00    -0.072 SA
HETATM   17  C   UNK     0     157.134 129.987 167.614  0.00  0.00     0.456 A 
HETATM   18  N   UNK     0     155.608 129.885 167.432  0.00  0.00    -0.229 NA
HETATM   19  N   UNK     0     157.936 131.244 167.996  0.00  0.00     0.656 N 
ENDBRANCH  13  14
BRANCH  13  20
HETATM   20  N   UNK     0     154.013 126.494 165.453  0.00  0.00    -0.126 NA
BRANCH  20  21
HETATM   21  O   UNK     0     152.840 125.524 165.213  0.00  0.00    -0.234 OA
HETATM   22  C   UNK     0     152.910 124.475 164.087  0.00  0.00     0.211 C 
ENDBRANCH  20  21
ENDBRANCH  13  20
ENDBRANCH  11  13
ENDBRANCH   7  10
BRANCH   3  23
HETATM   23  C   UNK     0     146.982 130.465 170.527  0.00  0.00     0.227 C 
HETATM   24  O   UNK     0     147.873 131.063 171.658  0.00  0.00    -0.643 OA
HETATM   25  O   UNK     0     145.700 131.282 170.078  0.00  0.00    -0.643 OA
ENDBRANCH   3  23
BRANCH   4  26
HETATM   26  C   UNK     0     145.084 128.167 170.861  0.00  0.00     0.089 C 
BRANCH  26  27
HETATM   27  S   UNK     0     143.756 127.754 170.252  0.00  0.00    -0.071 SA
BRANCH  27  28
HETATM   28  C   UNK     0     142.800 128.831 169.767  0.00  0.00     0.190 A 
HETATM   29  N   UNK     0     141.987 129.664 170.775  0.00  0.00    -0.192 NA
HETATM   30  C   UNK     0     141.031 130.740 170.290  0.00  0.00     0.260 A 
HETATM   31  C   UNK     0     140.857 131.022 168.739  0.00  0.00     0.274 A 
HETATM   32  O   UNK     0     140.218 131.573 171.298  0.00  0.00    -0.165 OA
HETATM   33  N   UNK     0     141.671 130.189 167.732  0.00  0.00    -0.136 NA
HETATM   34  O   UNK     0     139.902 132.099 168.255  0.00  0.00    -0.164 OA
HETATM   35  N   UNK     0     142.658 129.074 168.275  0.00  0.00    -0.225 N 
HETATM   36  C   UNK     0     143.472 128.241 167.267  0.00  0.00     0.156 C 
ENDBRANCH  27  28
ENDBRANCH  26  27
ENDBRANCH   4  26
TORSDOF 9
ENDMDL
MODEL 8
REMARK VINA RESULT:      -6.7     35.648     38.562
REMARK  9 active torsions:
REMARK  status: ('A' for Active; 'I' for Inactive)
REMARK    1  A    between atoms: C_3  and  C_21 
REMARK    2  A    between atoms: C_4  and  C_14 
REMARK    3  A    between atoms: C_7  and  N_9 
REMARK       I    between atoms: N_9  and  C_10 
REMARK    4  A    between atoms: C_10  and  C_13 
REMARK    5  A    between atoms: C_13  and  C_15 
REMARK    6  A    between atoms: C_13  and  N_20 
REMARK    7  A    between atoms: C_14  and  S_24 
REMARK    8  A    between atoms: N_20  and  O_35 
REMARK    9  A    between atoms: S_24  and  C_25 
ROOT
HETATM    1  C   UNK     0     162.736 133.731 225.293  0.00  0.00     0.308 A 
HETATM    2  N   UNK     0     161.832 133.948 224.163  0.00  0.00    -0.297 N 
HETATM    3  C   UNK     0     161.261 132.692 223.381  0.00  0.00     0.121 A 
HETATM    4  C   UNK     0     161.647 131.284 223.799  0.00  0.00    -0.002 A 
HETATM    5  C   UNK     0     162.551 131.067 224.929  0.00  0.00     0.065 A 
HETATM    6  S   UNK     0     163.116 132.247 225.701  0.00  0.00    -0.194 SA
HETATM    7  C   UNK     0     162.841 135.254 225.501  0.00  0.00     0.125 A 
HETATM    8  C   UNK     0     161.937 135.470 224.371  0.00  0.00     0.211 A 
HETATM    9  O   UNK     0     161.551 136.879 223.953  0.00  0.00    -0.170 OA
ENDROOT
BRANCH   7  10
HETATM   10  N   UNK     0     163.406 136.433 226.273  0.00  0.00    -0.217 NA
HETATM   11  C   UNK     0     164.699 137.073 225.799  0.00  0.00     0.234 C 
HETATM   12  O   UNK     0     165.391 136.560 224.616  0.00  0.00    -0.167 OA
BRANCH  11  13
HETATM   13  C   UNK     0     165.265 138.253 226.570  0.00  0.00     0.165 C 
BRANCH  13  14
HETATM   14  C   UNK     0     164.342 139.488 226.941  0.00  0.00     0.091 A 
HETATM   15  C   UNK     0     163.687 139.388 228.331  0.00  0.00     0.108 A 
HETATM   16  S   UNK     0     162.843 140.665 228.502  0.00  0.00    -0.072 SA
HETATM   17  C   UNK     0     162.966 141.591 227.194  0.00  0.00     0.456 A 
HETATM   18  N   UNK     0     163.903 140.855 226.218  0.00  0.00    -0.229 NA
HETATM   19  N   UNK     0     162.277 142.949 226.966  0.00  0.00     0.656 N 
ENDBRANCH  13  14
BRANCH  13  20
HETATM   20  N   UNK     0     166.816 138.267 227.026  0.00  0.00    -0.126 NA
BRANCH  20  21
HETATM   21  O   UNK     0     167.871 137.472 226.233  0.00  0.00    -0.234 OA
HETATM   22  C   UNK     0     168.777 136.450 226.944  0.00  0.00     0.211 C 
ENDBRANCH  20  21
ENDBRANCH  13  20
ENDBRANCH  11  13
ENDBRANCH   7  10
BRANCH   3  23
HETATM   23  C   UNK     0     160.310 132.921 222.192  0.00  0.00     0.227 C 
HETATM   24  O   UNK     0     158.783 133.185 222.367  0.00  0.00    -0.643 OA
HETATM   25  O   UNK     0     160.897 132.888 220.720  0.00  0.00    -0.643 OA
ENDBRANCH   3  23
BRANCH   4  26
HETATM   26  C   UNK     0     161.035 130.116 222.968  0.00  0.00     0.089 C 
BRANCH  26  27
HETATM   27  S   UNK     0     160.698 128.844 223.727  0.00  0.00    -0.071 SA
BRANCH  27  28
HETATM   28  C   UNK     0     161.758 127.767 223.869  0.00  0.00     0.190 A 
HETATM   29  N   UNK     0     162.612 127.676 225.148  0.00  0.00    -0.192 NA
HETATM   30  C   UNK     0     163.673 126.598 225.290  0.00  0.00     0.260 A 
HETATM   31  C   UNK     0     163.917 125.551 224.124  0.00  0.00     0.274 A 
HETATM   32  O   UNK     0     164.527 126.507 226.568  0.00  0.00    -0.165 OA
HETATM   33  N   UNK     0     163.062 125.642 222.846  0.00  0.00    -0.136 NA
HETATM   34  O   UNK     0     164.977 124.473 224.266  0.00  0.00    -0.164 OA
HETATM   35  N   UNK     0     161.964 126.780 222.733  0.00  0.00    -0.225 N 
HETATM   36  C   UNK     0     161.110 126.872 221.455  0.00  0.00     0.156 C 
ENDBRANCH  27  28
ENDBRANCH  26  27
ENDBRANCH   4  26
TORSDOF 9
ENDMDL
MODEL 9
REMARK VINA RESULT:      -6.7     41.391     44.681
REMARK  9 active torsions:
REMARK  status: ('A' for Active; 'I' for Inactive)
REMARK    1  A    between atoms: C_3  and  C_21 
REMARK    2  A    between atoms: C_4  and  C_14 
REMARK    3  A    between atoms: C_7  and  N_9 
REMARK       I    between atoms: N_9  and  C_10 
REMARK    4  A    between atoms: C_10  and  C_13 
REMARK    5  A    between atoms: C_13  and  C_15 
REMARK    6  A    between atoms: C_13  and  N_20 
REMARK    7  A    between atoms: C_14  and  S_24 
REMARK    8  A    between atoms: N_20  and  O_35 
REMARK    9  A    between atoms: S_24  and  C_25 
ROOT
HETATM    1  C   UNK     0     148.493 127.369 168.668  0.00  0.00     0.308 A 
HETATM    2  N   UNK     0     148.335 128.719 169.211  0.00  0.00    -0.297 N 
HETATM    3  C   UNK     0     146.964 129.115 169.902  0.00  0.00     0.121 A 
HETATM    4  C   UNK     0     145.830 128.109 169.998  0.00  0.00    -0.002 A 
HETATM    5  C   UNK     0     145.988 126.760 169.455  0.00  0.00     0.065 A 
HETATM    6  S   UNK     0     147.288 126.346 168.787  0.00  0.00    -0.194 SA
HETATM    7  C   UNK     0     149.924 127.718 168.219  0.00  0.00     0.125 A 
HETATM    8  C   UNK     0     149.766 129.067 168.762  0.00  0.00     0.211 A 
HETATM    9  O   UNK     0     150.899 130.073 168.665  0.00  0.00    -0.170 OA
ENDROOT
BRANCH   7  10
HETATM   10  N   UNK     0     151.223 127.304 167.551  0.00  0.00    -0.217 NA
HETATM   11  C   UNK     0     151.469 127.701 166.106  0.00  0.00     0.234 C 
HETATM   12  O   UNK     0     150.468 128.471 165.367  0.00  0.00    -0.167 OA
BRANCH  11  13
HETATM   13  C   UNK     0     152.769 127.287 165.438  0.00  0.00     0.165 C 
BRANCH  13  14
HETATM   14  C   UNK     0     152.759 126.270 164.221  0.00  0.00     0.091 A 
HETATM   15  C   UNK     0     154.067 125.473 164.058  0.00  0.00     0.108 A 
HETATM   16  S   UNK     0     153.863 124.553 162.840  0.00  0.00    -0.072 SA
HETATM   17  C   UNK     0     152.396 124.772 162.220  0.00  0.00     0.456 A 
HETATM   18  N   UNK     0     151.706 125.844 163.084  0.00  0.00    -0.229 NA
HETATM   19  N   UNK     0     151.801 124.046 161.000  0.00  0.00     0.656 N 
ENDBRANCH  13  14
BRANCH  13  20
HETATM   20  N   UNK     0     154.182 127.877 165.957  0.00  0.00    -0.126 NA
BRANCH  20  21
HETATM   21  O   UNK     0     154.517 127.894 167.461  0.00  0.00    -0.234 OA
HETATM   22  C   UNK     0     154.337 129.181 168.287  0.00  0.00     0.211 C 
ENDBRANCH  20  21
ENDBRANCH  13  20
ENDBRANCH  11  13
ENDBRANCH   7  10
BRANCH   3  23
HETATM   23  C   UNK     0     146.797 130.536 170.473  0.00  0.00     0.227 C 
HETATM   24  O   UNK     0     147.731 131.119 171.577  0.00  0.00    -0.643 OA
HETATM   25  O   UNK     0     145.629 131.455 169.923  0.00  0.00    -0.643 OA
ENDBRANCH   3  23
BRANCH   4  26
HETATM   26  C   UNK     0     144.522 128.594 170.695  0.00  0.00     0.089 C 
BRANCH  26  27
HETATM   27  S   UNK     0     143.213 128.205 170.031  0.00  0.00    -0.071 SA
BRANCH  27  28
HETATM   28  C   UNK     0     142.321 129.296 169.464  0.00  0.00     0.190 A 
HETATM   29  N   UNK     0     142.926 130.457 168.654  0.00  0.00    -0.192 NA
HETATM   30  C   UNK     0     142.033 131.548 168.087  0.00  0.00     0.260 A 
HETATM   31  C   UNK     0     140.466 131.507 168.321  0.00  0.00     0.274 A 
HETATM   32  O   UNK     0     142.638 132.709 167.277  0.00  0.00    -0.165 OA
HETATM   33  N   UNK     0     139.861 130.345 169.132  0.00  0.00    -0.136 NA
HETATM   34  O   UNK     0     139.573 132.597 167.755  0.00  0.00    -0.164 OA
HETATM   35  N   UNK     0     140.823 129.225 169.708  0.00  0.00    -0.225 N 
HETATM   36  C   UNK     0     140.218 128.063 170.518  0.00  0.00     0.156 C 
ENDBRANCH  27  28
ENDBRANCH  26  27
ENDBRANCH   4  26
TORSDOF 9
ENDMDL
MODEL 10
REMARK VINA RESULT:      -6.7     48.416     51.258
REMARK  9 active torsions:
REMARK  status: ('A' for Active; 'I' for Inactive)
REMARK    1  A    between atoms: C_3  and  C_21 
REMARK    2  A    between atoms: C_4  and  C_14 
REMARK    3  A    between atoms: C_7  and  N_9 
REMARK       I    between atoms: N_9  and  C_10 
REMARK    4  A    between atoms: C_10  and  C_13 
REMARK    5  A    between atoms: C_13  and  C_15 
REMARK    6  A    between atoms: C_13  and  N_20 
REMARK    7  A    between atoms: C_14  and  S_24 
REMARK    8  A    between atoms: N_20  and  O_35 
REMARK    9  A    between atoms: S_24  and  C_25 
ROOT
HETATM    1  C   UNK     0     184.075 175.670 157.186  0.00  0.00     0.308 A 
HETATM    2  N   UNK     0     185.104 176.589 156.698  0.00  0.00    -0.297 N 
HETATM    3  C   UNK     0     185.942 176.193 155.412  0.00  0.00     0.121 A 
HETATM    4  C   UNK     0     185.681 174.879 154.696  0.00  0.00    -0.002 A 
HETATM    5  C   UNK     0     184.652 173.961 155.184  0.00  0.00     0.065 A 
HETATM    6  S   UNK     0     183.830 174.308 156.413  0.00  0.00    -0.194 SA
HETATM    7  C   UNK     0     183.745 176.647 158.330  0.00  0.00     0.125 A 
HETATM    8  C   UNK     0     184.774 177.566 157.842  0.00  0.00     0.211 A 
HETATM    9  O   UNK     0     185.035 178.879 158.558  0.00  0.00    -0.170 OA
ENDROOT
BRANCH   7  10
HETATM   10  N   UNK     0     182.923 176.994 159.559  0.00  0.00    -0.217 NA
HETATM   11  C   UNK     0     183.107 176.176 160.825  0.00  0.00     0.234 C 
HETATM   12  O   UNK     0     184.064 175.069 160.860  0.00  0.00    -0.167 OA
BRANCH  11  13
HETATM   13  C   UNK     0     182.285 176.523 162.054  0.00  0.00     0.165 C 
BRANCH  13  14
HETATM   14  C   UNK     0     181.544 175.385 162.873  0.00  0.00     0.091 A 
HETATM   15  C   UNK     0     180.058 175.216 162.508  0.00  0.00     0.108 A 
HETATM   16  S   UNK     0     179.522 174.080 163.399  0.00  0.00    -0.072 SA
HETATM   17  C   UNK     0     180.694 173.519 164.346  0.00  0.00     0.456 A 
HETATM   18  N   UNK     0     181.958 174.335 164.017  0.00  0.00    -0.229 NA
HETATM   19  N   UNK     0     180.571 172.385 165.380  0.00  0.00     0.656 N 
ENDBRANCH  13  14
BRANCH  13  20
HETATM   20  N   UNK     0     182.154 178.057 162.545  0.00  0.00    -0.126 NA
BRANCH  20  21
HETATM   21  O   UNK     0     183.301 179.058 162.303  0.00  0.00    -0.234 OA
HETATM   22  C   UNK     0     183.119 180.234 161.326  0.00  0.00     0.211 C 
ENDBRANCH  20  21
ENDBRANCH  13  20
ENDBRANCH  11  13
ENDBRANCH   7  10
BRANCH   3  23
HETATM   23  C   UNK     0     187.025 177.160 154.898  0.00  0.00     0.227 C 
HETATM   24  O   UNK     0     186.708 178.371 153.969  0.00  0.00    -0.643 OA
HETATM   25  O   UNK     0     188.533 176.924 155.327  0.00  0.00    -0.643 OA
ENDBRANCH   3  23
BRANCH   4  26
HETATM   26  C   UNK     0     186.557 174.581 153.441  0.00  0.00     0.089 C 
BRANCH  26  27
HETATM   27  S   UNK     0     185.950 174.920 152.091  0.00  0.00    -0.071 SA
BRANCH  27  28
HETATM   28  C   UNK     0     186.511 176.090 151.303  0.00  0.00     0.190 A 
HETATM   29  N   UNK     0     187.996 176.117 150.895  0.00  0.00    -0.192 NA
HETATM   30  C   UNK     0     188.558 177.287 150.106  0.00  0.00     0.260 A 
HETATM   31  C   UNK     0     187.624 178.499 149.692  0.00  0.00     0.274 A 
HETATM   32  O   UNK     0     190.042 177.313 149.698  0.00  0.00    -0.165 OA
HETATM   33  N   UNK     0     186.139 178.473 150.100  0.00  0.00    -0.136 NA
HETATM   34  O   UNK     0     188.185 179.670 148.904  0.00  0.00    -0.164 OA
HETATM   35  N   UNK     0     185.588 177.235 150.923  0.00  0.00    -0.225 N 
HETATM   36  C   UNK     0     184.103 177.209 151.331  0.00  0.00     0.156 C 
ENDBRANCH  27  28
ENDBRANCH  26  27
ENDBRANCH   4  26
TORSDOF 9
ENDMDL
