MODEL 1
REMARK VINA RESULT:      -6.4      0.000      0.000
REMARK  1 active torsions:
REMARK  status: ('A' for Active; 'I' for Inactive)
REMARK    1  A    between atoms: N_4  and  C_11 
ROOT
HETATM    1 Cl   UNK     0     188.696 126.992 214.107  0.00  0.00    -0.091 Cl
HETATM    2  O   UNK     0     187.711 129.354 221.511  0.00  0.00    -0.171 OA
HETATM    3  O   UNK     0     183.718 126.054 221.323  0.00  0.00    -0.171 OA
HETATM    4  N   UNK     0     187.607 128.261 219.145  0.00  0.00    -0.295 N 
HETATM    5  N   UNK     0     184.942 126.058 219.019  0.00  0.00    -0.307 N 
HETATM    6  C   UNK     0     187.142 127.385 217.969  0.00  0.00     0.059 A 
HETATM    7  C   UNK     0     185.955 126.404 217.913  0.00  0.00     0.052 A 
HETATM    8  C   UNK     0     185.782 127.640 221.140  0.00  0.00     0.091 A 
HETATM    9  C   UNK     0     187.003 128.375 220.557  0.00  0.00     0.201 A 
HETATM   10  C   UNK     0     184.865 126.609 220.456  0.00  0.00     0.198 A 
HETATM   11  C   UNK     0     188.089 127.604 216.693  0.00  0.00     0.079 A 
HETATM   12  C   UNK     0     185.634 125.576 216.577  0.00  0.00     0.050 A 
HETATM   13  C   UNK     0     183.863 125.027 218.640  0.00  0.00     0.132 C 
HETATM   14  C   UNK     0     187.797 126.792 215.340  0.00  0.00     0.020 A 
HETATM   15  C   UNK     0     186.560 125.771 215.282  0.00  0.00     0.040 A 
ENDROOT
BRANCH   4  16
HETATM   16  C   UNK     0     188.842 129.142 218.875  0.00  0.00     0.021 A 
HETATM   17  C   UNK     0     190.252 128.608 219.188  0.00  0.00     0.040 A 
HETATM   18  C   UNK     0     191.487 129.488 218.917  0.00  0.00     0.006 A 
HETATM   19  C   UNK     0     191.310 130.902 218.334  0.00  0.00     0.001 A 
HETATM   20  C   UNK     0     189.900 131.436 218.021  0.00  0.00     0.006 A 
HETATM   21  C   UNK     0     188.667 130.556 218.292  0.00  0.00     0.040 A 
ENDBRANCH   4  16
TORSDOF 1
ENDMDL
MODEL 2
REMARK VINA RESULT:      -6.2     77.314     79.746
REMARK  1 active torsions:
REMARK  status: ('A' for Active; 'I' for Inactive)
REMARK    1  A    between atoms: N_4  and  C_11 
ROOT
HETATM    1 Cl   UNK     0     143.822 136.031 153.168  0.00  0.00    -0.091 Cl
HETATM    2  O   UNK     0     137.255 131.962 154.468  0.00  0.00    -0.171 OA
HETATM    3  O   UNK     0     140.548 128.664 156.737  0.00  0.00    -0.171 OA
HETATM    4  N   UNK     0     139.679 132.907 154.292  0.00  0.00    -0.295 N 
HETATM    5  N   UNK     0     141.878 130.706 155.807  0.00  0.00    -0.307 N 
HETATM    6  C   UNK     0     141.207 133.027 154.442  0.00  0.00     0.059 A 
HETATM    7  C   UNK     0     142.185 132.047 155.116  0.00  0.00     0.052 A 
HETATM    8  C   UNK     0     139.124 130.491 155.536  0.00  0.00     0.091 A 
HETATM    9  C   UNK     0     138.752 131.779 154.779  0.00  0.00     0.201 A 
HETATM   10  C   UNK     0     140.515 130.013 155.994  0.00  0.00     0.198 A 
HETATM   11  C   UNK     0     141.734 134.387 153.773  0.00  0.00     0.079 A 
HETATM   12  C   UNK     0     143.758 132.359 155.168  0.00  0.00     0.050 A 
HETATM   13  C   UNK     0     143.092 129.959 156.387  0.00  0.00     0.132 C 
HETATM   14  C   UNK     0     143.300 134.730 153.806  0.00  0.00     0.020 A 
HETATM   15  C   UNK     0     144.320 133.710 154.508  0.00  0.00     0.040 A 
ENDROOT
BRANCH   4  16
HETATM   16  C   UNK     0     138.987 134.070 153.558  0.00  0.00     0.021 A 
HETATM   17  C   UNK     0     138.900 134.069 152.020  0.00  0.00     0.040 A 
HETATM   18  C   UNK     0     138.208 135.232 151.286  0.00  0.00     0.006 A 
HETATM   19  C   UNK     0     137.601 136.397 152.090  0.00  0.00     0.001 A 
HETATM   20  C   UNK     0     137.687 136.399 153.628  0.00  0.00     0.006 A 
HETATM   21  C   UNK     0     138.379 135.236 154.361  0.00  0.00     0.040 A 
ENDBRANCH   4  16
TORSDOF 1
ENDMDL
MODEL 3
REMARK VINA RESULT:      -6.2     76.150     77.876
REMARK  1 active torsions:
REMARK  status: ('A' for Active; 'I' for Inactive)
REMARK    1  A    between atoms: N_4  and  C_11 
ROOT
HETATM    1 Cl   UNK     0     131.927 153.391 165.192  0.00  0.00    -0.091 Cl
HETATM    2  O   UNK     0     139.310 151.273 166.737  0.00  0.00    -0.171 OA
HETATM    3  O   UNK     0     139.891 152.068 161.648  0.00  0.00    -0.171 OA
HETATM    4  N   UNK     0     137.031 152.027 165.717  0.00  0.00    -0.295 N 
HETATM    5  N   UNK     0     137.419 152.558 162.320  0.00  0.00    -0.307 N 
HETATM    6  C   UNK     0     135.977 152.478 164.690  0.00  0.00     0.059 A 
HETATM    7  C   UNK     0     136.150 152.715 163.178  0.00  0.00     0.052 A 
HETATM    8  C   UNK     0     139.318 151.744 164.173  0.00  0.00     0.091 A 
HETATM    9  C   UNK     0     138.518 151.700 165.488  0.00  0.00     0.201 A 
HETATM   10  C   UNK     0     138.829 152.126 162.763  0.00  0.00     0.198 A 
HETATM   11  C   UNK     0     134.556 152.700 165.401  0.00  0.00     0.079 A 
HETATM   12  C   UNK     0     134.914 153.189 162.272  0.00  0.00     0.050 A 
HETATM   13  C   UNK     0     137.257 152.875 160.822  0.00  0.00     0.132 C 
HETATM   14  C   UNK     0     133.298 153.174 164.525  0.00  0.00     0.020 A 
HETATM   15  C   UNK     0     133.478 153.420 162.950  0.00  0.00     0.040 A 
ENDROOT
BRANCH   4  16
HETATM   16  C   UNK     0     136.532 151.883 167.167  0.00  0.00     0.021 A 
HETATM   17  C   UNK     0     135.980 150.533 167.662  0.00  0.00     0.040 A 
HETATM   18  C   UNK     0     135.481 150.389 169.112  0.00  0.00     0.006 A 
HETATM   19  C   UNK     0     135.534 151.596 170.067  0.00  0.00     0.001 A 
HETATM   20  C   UNK     0     136.086 152.947 169.572  0.00  0.00     0.006 A 
HETATM   21  C   UNK     0     136.584 153.090 168.123  0.00  0.00     0.040 A 
ENDBRANCH   4  16
TORSDOF 1
ENDMDL
MODEL 4
REMARK VINA RESULT:      -6.0     48.825     50.465
REMARK  1 active torsions:
REMARK  status: ('A' for Active; 'I' for Inactive)
REMARK    1  A    between atoms: N_4  and  C_11 
ROOT
HETATM    1 Cl   UNK     0     160.752 151.675 178.237  0.00  0.00    -0.091 Cl
HETATM    2  O   UNK     0     161.565 144.240 180.567  0.00  0.00    -0.171 OA
HETATM    3  O   UNK     0     162.420 146.480 185.162  0.00  0.00    -0.171 OA
HETATM    4  N   UNK     0     161.396 146.829 180.308  0.00  0.00    -0.295 N 
HETATM    5  N   UNK     0     161.967 148.325 183.375  0.00  0.00    -0.307 N 
HETATM    6  C   UNK     0     161.403 148.328 180.658  0.00  0.00     0.059 A 
HETATM    7  C   UNK     0     161.657 148.994 182.024  0.00  0.00     0.052 A 
HETATM    8  C   UNK     0     161.955 145.623 182.743  0.00  0.00     0.091 A 
HETATM    9  C   UNK     0     161.642 145.625 181.235  0.00  0.00     0.201 A 
HETATM   10  C   UNK     0     162.100 146.824 183.695  0.00  0.00     0.198 A 
HETATM   11  C   UNK     0     161.094 149.213 179.356  0.00  0.00     0.079 A 
HETATM   12  C   UNK     0     161.619 150.590 182.181  0.00  0.00     0.050 A 
HETATM   13  C   UNK     0     162.172 149.282 184.564  0.00  0.00     0.132 C 
HETATM   14  C   UNK     0     161.048 150.812 179.477  0.00  0.00     0.020 A 
HETATM   15  C   UNK     0     161.313 151.506 180.900  0.00  0.00     0.040 A 
ENDROOT
BRANCH   4  16
HETATM   16  C   UNK     0     161.106 146.489 178.834  0.00  0.00     0.021 A 
HETATM   17  C   UNK     0     159.654 146.282 178.363  0.00  0.00     0.040 A 
HETATM   18  C   UNK     0     159.363 145.941 176.890  0.00  0.00     0.006 A 
HETATM   19  C   UNK     0     160.524 145.808 175.887  0.00  0.00     0.001 A 
HETATM   20  C   UNK     0     161.976 146.016 176.358  0.00  0.00     0.006 A 
HETATM   21  C   UNK     0     162.266 146.356 177.831  0.00  0.00     0.040 A 
ENDBRANCH   4  16
TORSDOF 1
ENDMDL
MODEL 5
REMARK VINA RESULT:      -5.8     48.827     50.380
REMARK  1 active torsions:
REMARK  status: ('A' for Active; 'I' for Inactive)
REMARK    1  A    between atoms: N_4  and  C_11 
ROOT
HETATM    1 Cl   UNK     0     163.512 146.926 183.820  0.00  0.00    -0.091 Cl
HETATM    2  O   UNK     0     161.978 147.055 176.138  0.00  0.00    -0.171 OA
HETATM    3  O   UNK     0     157.548 144.842 177.670  0.00  0.00    -0.171 OA
HETATM    4  N   UNK     0     162.002 146.783 178.732  0.00  0.00    -0.295 N 
HETATM    5  N   UNK     0     159.045 145.306 179.755  0.00  0.00    -0.307 N 
HETATM    6  C   UNK     0     161.554 146.421 180.159  0.00  0.00     0.059 A 
HETATM    7  C   UNK     0     160.238 145.763 180.615  0.00  0.00     0.052 A 
HETATM    8  C   UNK     0     159.854 145.960 177.181  0.00  0.00     0.091 A 
HETATM    9  C   UNK     0     161.246 146.579 177.407  0.00  0.00     0.201 A 
HETATM   10  C   UNK     0     158.874 145.394 178.226  0.00  0.00     0.198 A 
HETATM   11  C   UNK     0     162.683 146.826 181.225  0.00  0.00     0.079 A 
HETATM   12  C   UNK     0     159.959 145.465 182.166  0.00  0.00     0.050 A 
HETATM   13  C   UNK     0     157.868 144.678 180.524  0.00  0.00     0.132 C 
HETATM   14  C   UNK     0     162.438 146.543 182.784  0.00  0.00     0.020 A 
HETATM   15  C   UNK     0     161.067 145.858 183.259  0.00  0.00     0.040 A 
ENDROOT
BRANCH   4  16
HETATM   16  C   UNK     0     163.391 147.438 178.614  0.00  0.00     0.021 A 
HETATM   17  C   UNK     0     163.522 148.972 178.609  0.00  0.00     0.040 A 
HETATM   18  C   UNK     0     164.911 149.627 178.491  0.00  0.00     0.006 A 
HETATM   19  C   UNK     0     166.169 148.747 178.378  0.00  0.00     0.001 A 
HETATM   20  C   UNK     0     166.039 147.212 178.382  0.00  0.00     0.006 A 
HETATM   21  C   UNK     0     164.650 146.558 178.500  0.00  0.00     0.040 A 
ENDBRANCH   4  16
TORSDOF 1
ENDMDL
MODEL 6
REMARK VINA RESULT:      -5.8     23.167     25.998
REMARK  1 active torsions:
REMARK  status: ('A' for Active; 'I' for Inactive)
REMARK    1  A    between atoms: N_4  and  C_11 
ROOT
HETATM    1 Cl   UNK     0     193.392 114.776 194.324  0.00  0.00    -0.091 Cl
HETATM    2  O   UNK     0     190.870 110.255 200.204  0.00  0.00    -0.171 OA
HETATM    3  O   UNK     0     188.280 114.552 201.504  0.00  0.00    -0.171 OA
HETATM    4  N   UNK     0     191.399 112.135 198.477  0.00  0.00    -0.295 N 
HETATM    5  N   UNK     0     189.671 115.005 199.344  0.00  0.00    -0.307 N 
HETATM    6  C   UNK     0     191.389 113.501 197.767  0.00  0.00     0.059 A 
HETATM    7  C   UNK     0     190.619 114.779 198.153  0.00  0.00     0.052 A 
HETATM    8  C   UNK     0     189.690 112.541 200.623  0.00  0.00     0.091 A 
HETATM    9  C   UNK     0     190.643 111.708 199.748  0.00  0.00     0.201 A 
HETATM   10  C   UNK     0     189.257 114.008 200.444  0.00  0.00     0.198 A 
HETATM   11  C   UNK     0     192.337 113.471 196.473  0.00  0.00     0.079 A 
HETATM   12  C   UNK     0     190.745 116.113 197.272  0.00  0.00     0.050 A 
HETATM   13  C   UNK     0     189.054 116.411 199.451  0.00  0.00     0.132 C 
HETATM   14  C   UNK     0     192.486 114.788 195.569  0.00  0.00     0.020 A 
HETATM   15  C   UNK     0     191.684 116.119 195.972  0.00  0.00     0.040 A 
ENDROOT
BRANCH   4  16
HETATM   16  C   UNK     0     192.283 111.053 197.829  0.00  0.00     0.021 A 
HETATM   17  C   UNK     0     191.705 110.142 196.730  0.00  0.00     0.040 A 
HETATM   18  C   UNK     0     192.589 109.059 196.083  0.00  0.00     0.006 A 
HETATM   19  C   UNK     0     194.050 108.888 196.535  0.00  0.00     0.001 A 
HETATM   20  C   UNK     0     194.629 109.799 197.635  0.00  0.00     0.006 A 
HETATM   21  C   UNK     0     193.745 110.880 198.281  0.00  0.00     0.040 A 
ENDBRANCH   4  16
TORSDOF 1
ENDMDL
MODEL 7
REMARK VINA RESULT:      -5.7     74.134     76.678
REMARK  1 active torsions:
REMARK  status: ('A' for Active; 'I' for Inactive)
REMARK    1  A    between atoms: N_4  and  C_11 
ROOT
HETATM    1 Cl   UNK     0     144.422 134.251 153.287  0.00  0.00    -0.091 Cl
HETATM    2  O   UNK     0     141.118 128.398 157.313  0.00  0.00    -0.171 OA
HETATM    3  O   UNK     0     145.828 128.115 159.460  0.00  0.00    -0.171 OA
HETATM    4  N   UNK     0     142.656 130.223 156.261  0.00  0.00    -0.295 N 
HETATM    5  N   UNK     0     145.800 130.034 157.694  0.00  0.00    -0.307 N 
HETATM    6  C   UNK     0     143.897 131.086 155.970  0.00  0.00     0.059 A 
HETATM    7  C   UNK     0     145.296 131.002 156.608  0.00  0.00     0.052 A 
HETATM    8  C   UNK     0     143.562 128.478 158.219  0.00  0.00     0.091 A 
HETATM    9  C   UNK     0     142.506 129.062 157.262  0.00  0.00     0.201 A 
HETATM   10  C   UNK     0     145.027 128.911 158.411  0.00  0.00     0.198 A 
HETATM   11  C   UNK     0     143.571 132.178 154.840  0.00  0.00     0.079 A 
HETATM   12  C   UNK     0     146.467 132.004 156.161  0.00  0.00     0.050 A 
HETATM   13  C   UNK     0     147.269 130.213 158.120  0.00  0.00     0.132 C 
HETATM   14  C   UNK     0     144.718 133.196 154.370  0.00  0.00     0.020 A 
HETATM   15  C   UNK     0     146.176 133.109 155.034  0.00  0.00     0.040 A 
ENDROOT
BRANCH   4  16
HETATM   16  C   UNK     0     141.397 130.565 155.443  0.00  0.00     0.021 A 
HETATM   17  C   UNK     0     140.396 131.611 155.969  0.00  0.00     0.040 A 
HETATM   18  C   UNK     0     139.138 131.954 155.151  0.00  0.00     0.006 A 
HETATM   19  C   UNK     0     138.879 131.250 153.807  0.00  0.00     0.001 A 
HETATM   20  C   UNK     0     139.879 130.204 153.280  0.00  0.00     0.006 A 
HETATM   21  C   UNK     0     141.137 129.862 154.098  0.00  0.00     0.040 A 
ENDBRANCH   4  16
TORSDOF 1
ENDMDL
MODEL 8
REMARK VINA RESULT:      -5.6     49.452     51.048
REMARK  1 active torsions:
REMARK  status: ('A' for Active; 'I' for Inactive)
REMARK    1  A    between atoms: N_4  and  C_11 
ROOT
HETATM    1 Cl   UNK     0     157.364 144.746 180.794  0.00  0.00    -0.091 Cl
HETATM    2  O   UNK     0     164.500 147.612 179.298  0.00  0.00    -0.171 OA
HETATM    3  O   UNK     0     162.718 147.675 174.431  0.00  0.00    -0.171 OA
HETATM    4  N   UNK     0     162.053 146.710 179.265  0.00  0.00    -0.295 N 
HETATM    5  N   UNK     0     160.863 146.753 176.016  0.00  0.00    -0.307 N 
HETATM    6  C   UNK     0     160.672 146.276 178.743  0.00  0.00     0.059 A 
HETATM    7  C   UNK     0     160.142 146.295 177.297  0.00  0.00     0.052 A 
HETATM    8  C   UNK     0     163.354 147.535 176.958  0.00  0.00     0.091 A 
HETATM    9  C   UNK     0     163.247 147.271 178.471  0.00  0.00     0.201 A 
HETATM   10  C   UNK     0     162.293 147.305 175.865  0.00  0.00     0.198 A 
HETATM   11  C   UNK     0     159.751 145.756 179.950  0.00  0.00     0.079 A 
HETATM   12  C   UNK     0     158.656 145.795 176.958  0.00  0.00     0.050 A 
HETATM   13  C   UNK     0     160.048 146.644 174.714  0.00  0.00     0.132 C 
HETATM   14  C   UNK     0     158.260 145.249 179.647  0.00  0.00     0.020 A 
HETATM   15  C   UNK     0     157.708 145.268 178.140  0.00  0.00     0.040 A 
ENDROOT
BRANCH   4  16
HETATM   16  C   UNK     0     162.270 146.565 180.783  0.00  0.00     0.021 A 
HETATM   17  C   UNK     0     162.765 145.228 181.366  0.00  0.00     0.040 A 
HETATM   18  C   UNK     0     162.982 145.083 182.884  0.00  0.00     0.006 A 
HETATM   19  C   UNK     0     162.704 146.274 183.818  0.00  0.00     0.001 A 
HETATM   20  C   UNK     0     162.209 147.612 183.235  0.00  0.00     0.006 A 
HETATM   21  C   UNK     0     161.993 147.757 181.718  0.00  0.00     0.040 A 
ENDBRANCH   4  16
TORSDOF 1
ENDMDL
MODEL 9
REMARK VINA RESULT:      -5.5     49.985     51.194
REMARK  1 active torsions:
REMARK  status: ('A' for Active; 'I' for Inactive)
REMARK    1  A    between atoms: N_4  and  C_11 
ROOT
HETATM    1 Cl   UNK     0     146.311 151.633 192.307  0.00  0.00    -0.091 Cl
HETATM    2  O   UNK     0     153.730 149.115 192.354  0.00  0.00    -0.171 OA
HETATM    3  O   UNK     0     153.736 151.131 187.579  0.00  0.00    -0.171 OA
HETATM    4  N   UNK     0     151.380 150.123 191.842  0.00  0.00    -0.295 N 
HETATM    5  N   UNK     0     151.383 151.469 188.654  0.00  0.00    -0.307 N 
HETATM    6  C   UNK     0     150.231 150.825 191.095  0.00  0.00     0.059 A 
HETATM    7  C   UNK     0     150.232 151.424 189.676  0.00  0.00     0.052 A 
HETATM    8  C   UNK     0     153.454 150.203 190.001  0.00  0.00     0.091 A 
HETATM    9  C   UNK     0     152.814 149.846 191.355  0.00  0.00     0.201 A 
HETATM   10  C   UNK     0     152.817 150.925 188.799  0.00  0.00     0.198 A 
HETATM   11  C   UNK     0     148.915 150.881 192.010  0.00  0.00     0.079 A 
HETATM   12  C   UNK     0     148.919 152.121 189.074  0.00  0.00     0.050 A 
HETATM   13  C   UNK     0     151.058 152.146 187.310  0.00  0.00     0.132 C 
HETATM   14  C   UNK     0     147.583 151.570 191.441  0.00  0.00     0.020 A 
HETATM   15  C   UNK     0     147.584 152.195 189.963  0.00  0.00     0.040 A 
ENDROOT
BRANCH   4  16
HETATM   16  C   UNK     0     151.051 149.633 193.264  0.00  0.00     0.021 A 
HETATM   17  C   UNK     0     151.393 150.512 194.481  0.00  0.00     0.040 A 
HETATM   18  C   UNK     0     151.064 150.022 195.903  0.00  0.00     0.006 A 
HETATM   19  C   UNK     0     150.393 148.652 196.108  0.00  0.00     0.001 A 
HETATM   20  C   UNK     0     150.050 147.772 194.891  0.00  0.00     0.006 A 
HETATM   21  C   UNK     0     150.379 148.262 193.470  0.00  0.00     0.040 A 
ENDBRANCH   4  16
TORSDOF 1
ENDMDL
MODEL 10
REMARK VINA RESULT:      -5.4     77.650     80.047
REMARK  1 active torsions:
REMARK  status: ('A' for Active; 'I' for Inactive)
REMARK    1  A    between atoms: N_4  and  C_11 
ROOT
HETATM    1 Cl   UNK     0     145.656 134.254 154.249  0.00  0.00    -0.091 Cl
HETATM    2  O   UNK     0     138.325 131.530 153.793  0.00  0.00    -0.171 OA
HETATM    3  O   UNK     0     137.521 136.033 151.355  0.00  0.00    -0.171 OA
HETATM    4  N   UNK     0     140.564 132.862 153.684  0.00  0.00    -0.295 N 
HETATM    5  N   UNK     0     140.028 135.868 152.056  0.00  0.00    -0.307 N 
HETATM    6  C   UNK     0     141.575 133.982 153.377  0.00  0.00     0.059 A 
HETATM    7  C   UNK     0     141.337 135.320 152.652  0.00  0.00     0.052 A 
HETATM    8  C   UNK     0     138.204 133.850 152.610  0.00  0.00     0.091 A 
HETATM    9  C   UNK     0     139.064 132.804 153.343  0.00  0.00     0.201 A 
HETATM   10  C   UNK     0     138.633 135.214 152.037  0.00  0.00     0.198 A 
HETATM   11  C   UNK     0     143.031 133.593 153.930  0.00  0.00     0.079 A 
HETATM   12  C   UNK     0     142.536 136.362 152.430  0.00  0.00     0.050 A 
HETATM   13  C   UNK     0     140.125 137.254 151.391  0.00  0.00     0.132 C 
HETATM   14  C   UNK     0     144.253 134.612 153.725  0.00  0.00     0.020 A 
HETATM   15  C   UNK     0     144.005 136.006 152.970  0.00  0.00     0.040 A 
ENDROOT
BRANCH   4  16
HETATM   16  C   UNK     0     141.127 131.640 154.431  0.00  0.00     0.021 A 
HETATM   17  C   UNK     0     141.627 130.416 153.641  0.00  0.00     0.040 A 
HETATM   18  C   UNK     0     142.190 129.193 154.388  0.00  0.00     0.006 A 
HETATM   19  C   UNK     0     142.254 129.194 155.926  0.00  0.00     0.001 A 
HETATM   20  C   UNK     0     141.754 130.418 156.718  0.00  0.00     0.006 A 
HETATM   21  C   UNK     0     141.191 131.639 155.970  0.00  0.00     0.040 A 
ENDBRANCH   4  16
TORSDOF 1
ENDMDL
