MODEL 1
REMARK VINA RESULT:      -7.6      0.000      0.000
REMARK  1 active torsions:
REMARK  status: ('A' for Active; 'I' for Inactive)
REMARK    1  A    between atoms: N_7  and  C_15 
ROOT
HETATM    1 Cl   UNK     0     137.182 153.007 159.463  0.00  0.00    -0.143 Cl
HETATM    2  O   UNK     0     131.195 155.423 163.319  0.00  0.00    -0.168 OA
HETATM    3  N   UNK     0     132.564 154.880 161.167  0.00  0.00    -0.223 NA
HETATM    4  N   UNK     0     134.983 153.876 163.429  0.00  0.00    -0.240 NA
HETATM    5  C   UNK     0     135.091 153.852 160.656  0.00  0.00     0.042 A 
HETATM    6  C   UNK     0     133.715 154.417 160.254  0.00  0.00     0.064 A 
HETATM    7  C   UNK     0     135.655 153.612 162.068  0.00  0.00     0.080 A 
HETATM    8  C   UNK     0     137.079 153.030 162.128  0.00  0.00     0.001 A 
HETATM    9  C   UNK     0     136.161 153.423 159.540  0.00  0.00     0.067 A 
HETATM   10  C   UNK     0     133.315 154.591 158.711  0.00  0.00     0.052 A 
HETATM   11  C   UNK     0     133.581 154.446 163.712  0.00  0.00     0.146 A 
HETATM   12  C   UNK     0     135.794 153.585 157.988  0.00  0.00     0.114 A 
HETATM   13  C   UNK     0     132.504 154.893 162.706  0.00  0.00     0.232 A 
HETATM   14  C   UNK     0     134.361 154.172 157.570  0.00  0.00     0.058 A 
HETATM   15  C   UNK     0     137.843 152.727 160.826  0.00  0.00     0.022 A 
HETATM   16  C   UNK     0     137.740 152.750 163.491  0.00  0.00     0.028 A 
HETATM   17  C   UNK     0     139.268 152.146 160.886  0.00  0.00     0.037 A 
HETATM   18  C   UNK     0     139.165 152.168 163.551  0.00  0.00     0.005 A 
HETATM   19  C   UNK     0     139.928 151.866 162.248  0.00  0.00     0.006 A 
ENDROOT
BRANCH  12  20
HETATM   20  N   UNK     0     136.811 153.177 156.904  0.00  0.00    -0.117 N 
HETATM   21  O   UNK     0     136.455 152.076 155.889  0.00  0.00    -0.532 OA
HETATM   22  O   UNK     0     138.183 153.872 156.838  0.00  0.00    -0.532 OA
ENDBRANCH  12  20
TORSDOF 1
ENDMDL
MODEL 2
REMARK VINA RESULT:      -7.2     18.743     20.495
REMARK  1 active torsions:
REMARK  status: ('A' for Active; 'I' for Inactive)
REMARK    1  A    between atoms: N_7  and  C_15 
ROOT
HETATM    1 Cl   UNK     0     135.823 172.967 151.220  0.00  0.00    -0.143 Cl
HETATM    2  O   UNK     0     132.029 167.036 153.861  0.00  0.00    -0.168 OA
HETATM    3  N   UNK     0     132.670 169.559 153.706  0.00  0.00    -0.223 NA
HETATM    4  N   UNK     0     134.883 168.447 151.290  0.00  0.00    -0.240 NA
HETATM    5  C   UNK     0     134.470 171.037 152.197  0.00  0.00     0.042 A 
HETATM    6  C   UNK     0     133.369 170.857 153.259  0.00  0.00     0.064 A 
HETATM    7  C   UNK     0     135.144 169.966 151.321  0.00  0.00     0.080 A 
HETATM    8  C   UNK     0     136.221 170.479 150.348  0.00  0.00     0.001 A 
HETATM    9  C   UNK     0     135.073 172.489 151.875  0.00  0.00     0.067 A 
HETATM   10  C   UNK     0     132.794 172.115 154.072  0.00  0.00     0.052 A 
HETATM   11  C   UNK     0     133.885 167.627 152.127  0.00  0.00     0.146 A 
HETATM   12  C   UNK     0     134.521 173.768 152.669  0.00  0.00     0.114 A 
HETATM   13  C   UNK     0     132.899 168.122 153.202  0.00  0.00     0.232 A 
HETATM   14  C   UNK     0     133.374 173.580 153.775  0.00  0.00     0.058 A 
HETATM   15  C   UNK     0     136.561 171.980 150.297  0.00  0.00     0.022 A 
HETATM   16  C   UNK     0     136.958 169.490 149.424  0.00  0.00     0.028 A 
HETATM   17  C   UNK     0     137.638 172.493 149.323  0.00  0.00     0.037 A 
HETATM   18  C   UNK     0     138.036 170.004 148.451  0.00  0.00     0.005 A 
HETATM   19  C   UNK     0     138.375 171.505 148.400  0.00  0.00     0.006 A 
ENDROOT
BRANCH  12  20
HETATM   20  N   UNK     0     135.089 175.169 152.372  0.00  0.00    -0.117 N 
HETATM   21  O   UNK     0     136.437 175.598 152.980  0.00  0.00    -0.532 OA
HETATM   22  O   UNK     0     134.309 176.140 151.467  0.00  0.00    -0.532 OA
ENDBRANCH  12  20
TORSDOF 1
ENDMDL
MODEL 3
REMARK VINA RESULT:      -7.0     31.184     33.641
REMARK  1 active torsions:
REMARK  status: ('A' for Active; 'I' for Inactive)
REMARK    1  A    between atoms: N_7  and  C_15 
ROOT
HETATM    1 Cl   UNK     0     161.343 149.098 181.702  0.00  0.00    -0.143 Cl
HETATM    2  O   UNK     0     163.015 143.701 176.739  0.00  0.00    -0.168 OA
HETATM    3  N   UNK     0     162.706 144.713 179.122  0.00  0.00    -0.223 NA
HETATM    4  N   UNK     0     161.810 147.561 177.373  0.00  0.00    -0.240 NA
HETATM    5  C   UNK     0     161.936 147.185 180.120  0.00  0.00     0.042 A 
HETATM    6  C   UNK     0     162.395 145.720 180.245  0.00  0.00     0.064 A 
HETATM    7  C   UNK     0     161.676 148.004 178.843  0.00  0.00     0.080 A 
HETATM    8  C   UNK     0     161.221 149.459 179.063  0.00  0.00     0.001 A 
HETATM    9  C   UNK     0     161.662 148.076 181.426  0.00  0.00     0.067 A 
HETATM   10  C   UNK     0     162.611 145.045 181.684  0.00  0.00     0.052 A 
HETATM   11  C   UNK     0     162.237 146.189 176.820  0.00  0.00     0.146 A 
HETATM   12  C   UNK     0     161.868 147.432 182.880  0.00  0.00     0.114 A 
HETATM   13  C   UNK     0     162.636 144.921 177.598  0.00  0.00     0.232 A 
HETATM   14  C   UNK     0     162.345 145.907 183.010  0.00  0.00     0.058 A 
HETATM   15  C   UNK     0     161.055 150.006 180.492  0.00  0.00     0.022 A 
HETATM   16  C   UNK     0     160.933 150.367 177.852  0.00  0.00     0.028 A 
HETATM   17  C   UNK     0     160.601 151.461 180.712  0.00  0.00     0.037 A 
HETATM   18  C   UNK     0     160.479 151.822 178.073  0.00  0.00     0.005 A 
HETATM   19  C   UNK     0     160.313 152.369 179.502  0.00  0.00     0.006 A 
ENDROOT
BRANCH  12  20
HETATM   20  N   UNK     0     161.609 148.274 184.144  0.00  0.00    -0.117 N 
HETATM   21  O   UNK     0     160.256 148.172 184.873  0.00  0.00    -0.532 OA
HETATM   22  O   UNK     0     162.702 149.217 184.678  0.00  0.00    -0.532 OA
ENDBRANCH  12  20
TORSDOF 1
ENDMDL
MODEL 4
REMARK VINA RESULT:      -6.8     28.970     29.515
REMARK  1 active torsions:
REMARK  status: ('A' for Active; 'I' for Inactive)
REMARK    1  A    between atoms: N_7  and  C_15 
ROOT
HETATM    1 Cl   UNK     0     143.063 181.019 159.910  0.00  0.00    -0.143 Cl
HETATM    2  O   UNK     0     146.503 182.605 166.406  0.00  0.00    -0.168 OA
HETATM    3  N   UNK     0     146.278 181.504 164.054  0.00  0.00    -0.223 NA
HETATM    4  N   UNK     0     143.200 183.084 164.037  0.00  0.00    -0.240 NA
HETATM    5  C   UNK     0     144.333 181.483 162.074  0.00  0.00     0.042 A 
HETATM    6  C   UNK     0     145.693 181.099 162.687  0.00  0.00     0.064 A 
HETATM    7  C   UNK     0     143.224 182.366 162.674  0.00  0.00     0.080 A 
HETATM    8  C   UNK     0     141.973 182.558 161.797  0.00  0.00     0.001 A 
HETATM    9  C   UNK     0     143.906 180.952 160.622  0.00  0.00     0.067 A 
HETATM   10  C   UNK     0     146.718 180.157 161.891  0.00  0.00     0.052 A 
HETATM   11  C   UNK     0     144.279 183.096 165.136  0.00  0.00     0.146 A 
HETATM   12  C   UNK     0     144.907 180.009 159.798  0.00  0.00     0.114 A 
HETATM   13  C   UNK     0     145.649 182.392 165.143  0.00  0.00     0.232 A 
HETATM   14  C   UNK     0     146.323 179.609 160.437  0.00  0.00     0.058 A 
HETATM   15  C   UNK     0     141.892 181.884 160.414  0.00  0.00     0.022 A 
HETATM   16  C   UNK     0     140.803 183.423 162.302  0.00  0.00     0.028 A 
HETATM   17  C   UNK     0     140.641 182.075 159.536  0.00  0.00     0.037 A 
HETATM   18  C   UNK     0     139.552 183.614 161.423  0.00  0.00     0.005 A 
HETATM   19  C   UNK     0     139.472 182.940 160.041  0.00  0.00     0.006 A 
ENDROOT
BRANCH  12  20
HETATM   20  N   UNK     0     144.512 179.490 158.402  0.00  0.00    -0.117 N 
HETATM   21  O   UNK     0     144.134 180.485 157.290  0.00  0.00    -0.532 OA
HETATM   22  O   UNK     0     144.497 177.977 158.120  0.00  0.00    -0.532 OA
ENDBRANCH  12  20
TORSDOF 1
ENDMDL
MODEL 5
REMARK VINA RESULT:      -6.8     47.550     50.416
REMARK  1 active torsions:
REMARK  status: ('A' for Active; 'I' for Inactive)
REMARK    1  A    between atoms: N_7  and  C_15 
ROOT
HETATM    1 Cl   UNK     0     173.191 158.313 195.352  0.00  0.00    -0.143 Cl
HETATM    2  O   UNK     0     169.310 163.641 191.734  0.00  0.00    -0.168 OA
HETATM    3  N   UNK     0     169.680 161.284 192.787  0.00  0.00    -0.223 NA
HETATM    4  N   UNK     0     172.802 162.554 193.570  0.00  0.00    -0.240 NA
HETATM    5  C   UNK     0     171.772 160.036 194.116  0.00  0.00     0.042 A 
HETATM    6  C   UNK     0     170.356 160.106 193.513  0.00  0.00     0.064 A 
HETATM    7  C   UNK     0     172.860 161.124 194.141  0.00  0.00     0.080 A 
HETATM    8  C   UNK     0     174.182 160.733 194.828  0.00  0.00     0.001 A 
HETATM    9  C   UNK     0     172.293 158.701 194.838  0.00  0.00     0.067 A 
HETATM   10  C   UNK     0     169.364 158.848 193.591  0.00  0.00     0.052 A 
HETATM   11  C   UNK     0     171.641 163.247 192.832  0.00  0.00     0.146 A 
HETATM   12  C   UNK     0     171.328 157.425 194.934  0.00  0.00     0.114 A 
HETATM   13  C   UNK     0     170.252 162.682 192.484  0.00  0.00     0.232 A 
HETATM   14  C   UNK     0     169.853 157.499 194.307  0.00  0.00     0.058 A 
HETATM   15  C   UNK     0     174.348 159.327 195.434  0.00  0.00     0.022 A 
HETATM   16  C   UNK     0     175.338 161.748 194.909  0.00  0.00     0.028 A 
HETATM   17  C   UNK     0     175.669 158.935 196.121  0.00  0.00     0.037 A 
HETATM   18  C   UNK     0     176.659 161.355 195.597  0.00  0.00     0.005 A 
HETATM   19  C   UNK     0     176.824 159.950 196.202  0.00  0.00     0.006 A 
ENDROOT
BRANCH  12  20
HETATM   20  N   UNK     0     171.813 156.136 195.625  0.00  0.00    -0.117 N 
HETATM   21  O   UNK     0     172.313 154.951 194.779  0.00  0.00    -0.532 OA
HETATM   22  O   UNK     0     171.797 156.034 197.161  0.00  0.00    -0.532 OA
ENDBRANCH  12  20
TORSDOF 1
ENDMDL
MODEL 6
REMARK VINA RESULT:      -6.7     24.383     26.718
REMARK  1 active torsions:
REMARK  status: ('A' for Active; 'I' for Inactive)
REMARK    1  A    between atoms: N_7  and  C_15 
ROOT
HETATM    1 Cl   UNK     0     142.179 166.102 182.479  0.00  0.00    -0.143 Cl
HETATM    2  O   UNK     0     142.420 173.092 179.716  0.00  0.00    -0.168 OA
HETATM    3  N   UNK     0     142.775 171.248 181.524  0.00  0.00    -0.223 NA
HETATM    4  N   UNK     0     141.445 169.165 179.103  0.00  0.00    -0.240 NA
HETATM    5  C   UNK     0     142.313 168.514 181.657  0.00  0.00     0.042 A 
HETATM    6  C   UNK     0     142.784 169.871 182.215  0.00  0.00     0.064 A 
HETATM    7  C   UNK     0     141.717 168.200 180.273  0.00  0.00     0.080 A 
HETATM    8  C   UNK     0     141.344 166.727 180.025  0.00  0.00     0.001 A 
HETATM    9  C   UNK     0     142.407 167.182 182.546  0.00  0.00     0.067 A 
HETATM   10  C   UNK     0     143.382 169.988 183.699  0.00  0.00     0.052 A 
HETATM   11  C   UNK     0     141.701 170.681 179.029  0.00  0.00     0.146 A 
HETATM   12  C   UNK     0     143.000 167.263 184.033  0.00  0.00     0.114 A 
HETATM   13  C   UNK     0     142.293 171.608 180.107  0.00  0.00     0.232 A 
HETATM   14  C   UNK     0     143.490 168.676 184.614  0.00  0.00     0.058 A 
HETATM   15  C   UNK     0     141.575 165.677 181.128  0.00  0.00     0.022 A 
HETATM   16  C   UNK     0     140.740 166.303 178.673  0.00  0.00     0.028 A 
HETATM   17  C   UNK     0     141.202 164.204 180.880  0.00  0.00     0.037 A 
HETATM   18  C   UNK     0     140.367 164.829 178.425  0.00  0.00     0.005 A 
HETATM   19  C   UNK     0     140.598 163.780 179.528  0.00  0.00     0.006 A 
ENDROOT
BRANCH  12  20
HETATM   20  N   UNK     0     143.097 165.993 184.900  0.00  0.00    -0.117 N 
HETATM   21  O   UNK     0     144.409 165.187 184.940  0.00  0.00    -0.532 OA
HETATM   22  O   UNK     0     141.883 165.530 185.725  0.00  0.00    -0.532 OA
ENDBRANCH  12  20
TORSDOF 1
ENDMDL
MODEL 7
REMARK VINA RESULT:      -6.6     42.555     42.879
REMARK  1 active torsions:
REMARK  status: ('A' for Active; 'I' for Inactive)
REMARK    1  A    between atoms: N_7  and  C_15 
ROOT
HETATM    1 Cl   UNK     0     158.885 157.050 196.556  0.00  0.00    -0.143 Cl
HETATM    2  O   UNK     0     156.606 164.216 196.456  0.00  0.00    -0.168 OA
HETATM    3  N   UNK     0     158.254 162.249 195.994  0.00  0.00    -0.223 NA
HETATM    4  N   UNK     0     155.786 160.342 197.492  0.00  0.00    -0.240 NA
HETATM    5  C   UNK     0     158.226 159.513 196.462  0.00  0.00     0.042 A 
HETATM    6  C   UNK     0     158.845 160.827 195.948  0.00  0.00     0.064 A 
HETATM    7  C   UNK     0     156.865 159.298 197.149  0.00  0.00     0.080 A 
HETATM    8  C   UNK     0     156.540 157.846 197.546  0.00  0.00     0.001 A 
HETATM    9  C   UNK     0     159.011 158.122 196.317  0.00  0.00     0.067 A 
HETATM   10  C   UNK     0     160.291 160.840 195.254  0.00  0.00     0.052 A 
HETATM   11  C   UNK     0     155.802 161.860 197.232  0.00  0.00     0.146 A 
HETATM   12  C   UNK     0     160.459 158.098 195.629  0.00  0.00     0.114 A 
HETATM   13  C   UNK     0     156.901 162.709 196.566  0.00  0.00     0.232 A 
HETATM   14  C   UNK     0     161.103 159.466 195.093  0.00  0.00     0.058 A 
HETATM   15  C   UNK     0     157.550 156.721 197.249  0.00  0.00     0.022 A 
HETATM   16  C   UNK     0     155.204 157.518 198.240  0.00  0.00     0.028 A 
HETATM   17  C   UNK     0     157.224 155.270 197.646  0.00  0.00     0.037 A 
HETATM   18  C   UNK     0     154.879 156.066 198.636  0.00  0.00     0.005 A 
HETATM   19  C   UNK     0     155.889 154.942 198.340  0.00  0.00     0.006 A 
ENDROOT
BRANCH  12  20
HETATM   20  N   UNK     0     161.226 156.770 195.482  0.00  0.00    -0.117 N 
HETATM   21  O   UNK     0     161.953 156.163 196.696  0.00  0.00    -0.532 OA
HETATM   22  O   UNK     0     161.266 156.051 194.121  0.00  0.00    -0.532 OA
ENDBRANCH  12  20
TORSDOF 1
ENDMDL
MODEL 8
REMARK VINA RESULT:      -6.6     56.523     57.952
REMARK  1 active torsions:
REMARK  status: ('A' for Active; 'I' for Inactive)
REMARK    1  A    between atoms: N_7  and  C_15 
ROOT
HETATM    1 Cl   UNK     0     174.962 131.030 197.239  0.00  0.00    -0.143 Cl
HETATM    2  O   UNK     0     172.849 125.499 192.604  0.00  0.00    -0.168 OA
HETATM    3  N   UNK     0     172.520 127.240 194.517  0.00  0.00    -0.223 NA
HETATM    4  N   UNK     0     175.814 128.042 193.825  0.00  0.00    -0.240 NA
HETATM    5  C   UNK     0     174.125 129.156 195.724  0.00  0.00     0.042 A 
HETATM    6  C   UNK     0     172.816 128.368 195.524  0.00  0.00     0.064 A 
HETATM    7  C   UNK     0     175.458 129.011 194.968  0.00  0.00     0.080 A 
HETATM    8  C   UNK     0     176.586 129.960 195.414  0.00  0.00     0.001 A 
HETATM    9  C   UNK     0     174.231 130.305 196.839  0.00  0.00     0.067 A 
HETATM   10  C   UNK     0     171.525 128.674 196.423  0.00  0.00     0.052 A 
HETATM   11  C   UNK     0     174.924 126.979 193.155  0.00  0.00     0.146 A 
HETATM   12  C   UNK     0     172.958 130.637 197.756  0.00  0.00     0.114 A 
HETATM   13  C   UNK     0     173.458 126.622 193.463  0.00  0.00     0.232 A 
HETATM   14  C   UNK     0     171.596 129.816 197.547  0.00  0.00     0.058 A 
HETATM   15  C   UNK     0     176.338 130.970 196.550  0.00  0.00     0.022 A 
HETATM   16  C   UNK     0     177.962 129.899 194.724  0.00  0.00     0.028 A 
HETATM   17  C   UNK     0     177.465 131.919 196.996  0.00  0.00     0.037 A 
HETATM   18  C   UNK     0     179.089 130.849 195.171  0.00  0.00     0.005 A 
HETATM   19  C   UNK     0     178.840 131.859 196.306  0.00  0.00     0.006 A 
ENDROOT
BRANCH  12  20
HETATM   20  N   UNK     0     173.043 131.737 198.831  0.00  0.00    -0.117 N 
HETATM   21  O   UNK     0     172.440 133.127 198.559  0.00  0.00    -0.532 OA
HETATM   22  O   UNK     0     173.732 131.446 200.177  0.00  0.00    -0.532 OA
ENDBRANCH  12  20
TORSDOF 1
ENDMDL
MODEL 9
REMARK VINA RESULT:      -6.5     17.966     20.305
REMARK  1 active torsions:
REMARK  status: ('A' for Active; 'I' for Inactive)
REMARK    1  A    between atoms: N_7  and  C_15 
ROOT
HETATM    1 Cl   UNK     0     129.114 171.289 160.722  0.00  0.00    -0.143 Cl
HETATM    2  O   UNK     0     121.856 170.847 158.807  0.00  0.00    -0.168 OA
HETATM    3  N   UNK     0     123.985 170.226 160.178  0.00  0.00    -0.223 NA
HETATM    4  N   UNK     0     125.506 172.577 158.146  0.00  0.00    -0.240 NA
HETATM    5  C   UNK     0     126.636 171.047 160.166  0.00  0.00     0.042 A 
HETATM    6  C   UNK     0     125.444 170.213 160.672  0.00  0.00     0.064 A 
HETATM    7  C   UNK     0     126.663 172.098 159.042  0.00  0.00     0.080 A 
HETATM    8  C   UNK     0     128.029 172.760 158.780  0.00  0.00     0.001 A 
HETATM    9  C   UNK     0     128.091 170.883 160.822  0.00  0.00     0.067 A 
HETATM   10  C   UNK     0     125.624 169.158 161.867  0.00  0.00     0.052 A 
HETATM   11  C   UNK     0     124.035 172.121 158.152  0.00  0.00     0.146 A 
HETATM   12  C   UNK     0     128.307 169.839 162.018  0.00  0.00     0.114 A 
HETATM   13  C   UNK     0     123.358 171.075 159.056  0.00  0.00     0.232 A 
HETATM   14  C   UNK     0     127.066 168.970 162.545  0.00  0.00     0.058 A 
HETATM   15  C   UNK     0     129.255 172.355 159.619  0.00  0.00     0.022 A 
HETATM   16  C   UNK     0     128.169 173.826 157.677  0.00  0.00     0.028 A 
HETATM   17  C   UNK     0     130.621 173.017 159.357  0.00  0.00     0.037 A 
HETATM   18  C   UNK     0     129.535 174.488 157.415  0.00  0.00     0.005 A 
HETATM   19  C   UNK     0     130.760 174.083 158.254  0.00  0.00     0.006 A 
ENDROOT
BRANCH  12  20
HETATM   20  N   UNK     0     129.698 169.670 162.658  0.00  0.00    -0.117 N 
HETATM   21  O   UNK     0     130.088 170.514 163.886  0.00  0.00    -0.532 OA
HETATM   22  O   UNK     0     130.698 168.658 162.070  0.00  0.00    -0.532 OA
ENDBRANCH  12  20
TORSDOF 1
ENDMDL
MODEL 10
REMARK VINA RESULT:      -6.5     67.493     69.528
REMARK  1 active torsions:
REMARK  status: ('A' for Active; 'I' for Inactive)
REMARK    1  A    between atoms: N_7  and  C_15 
ROOT
HETATM    1 Cl   UNK     0     161.242 131.179 220.099  0.00  0.00    -0.143 Cl
HETATM    2  O   UNK     0     158.480 133.961 226.516  0.00  0.00    -0.168 OA
HETATM    3  N   UNK     0     159.624 134.093 224.176  0.00  0.00    -0.223 NA
HETATM    4  N   UNK     0     159.200 130.659 224.207  0.00  0.00    -0.240 NA
HETATM    5  C   UNK     0     160.340 132.244 222.234  0.00  0.00     0.042 A 
HETATM    6  C   UNK     0     160.224 133.662 222.824  0.00  0.00     0.064 A 
HETATM    7  C   UNK     0     159.884 130.908 222.849  0.00  0.00     0.080 A 
HETATM    8  C   UNK     0     160.147 129.655 221.994  0.00  0.00     0.001 A 
HETATM    9  C   UNK     0     161.005 132.004 220.794  0.00  0.00     0.067 A 
HETATM   10  C   UNK     0     160.766 134.937 222.016  0.00  0.00     0.052 A 
HETATM   11  C   UNK     0     158.803 131.685 225.284  0.00  0.00     0.146 A 
HETATM   12  C   UNK     0     161.557 133.257 219.959  0.00  0.00     0.114 A 
HETATM   13  C   UNK     0     158.992 133.213 225.271  0.00  0.00     0.232 A 
HETATM   14  C   UNK     0     161.436 134.733 220.574  0.00  0.00     0.058 A 
HETATM   15  C   UNK     0     160.827 129.790 220.618  0.00  0.00     0.022 A 
HETATM   16  C   UNK     0     159.731 128.266 222.514  0.00  0.00     0.028 A 
HETATM   17  C   UNK     0     161.090 128.536 219.763  0.00  0.00     0.037 A 
HETATM   18  C   UNK     0     159.995 127.013 221.658  0.00  0.00     0.005 A 
HETATM   19  C   UNK     0     160.673 127.148 220.283  0.00  0.00     0.006 A 
ENDROOT
BRANCH  12  20
HETATM   20  N   UNK     0     162.199 133.043 218.575  0.00  0.00    -0.117 N 
HETATM   21  O   UNK     0     163.711 133.263 218.385  0.00  0.00    -0.532 OA
HETATM   22  O   UNK     0     161.328 132.610 217.382  0.00  0.00    -0.532 OA
ENDBRANCH  12  20
TORSDOF 1
ENDMDL
