MODEL 1
REMARK VINA RESULT:      -6.6      0.000      0.000
REMARK  1 active torsions:
REMARK  status: ('A' for Active; 'I' for Inactive)
REMARK    1  A    between atoms: C_7  and  C_10 
ROOT
HETATM    1 Cl   UNK     0     147.173 139.840 142.207  0.00  0.00    -0.091 Cl
HETATM    2  O   UNK     0     147.041 148.480 140.457  0.00  0.00    -0.169 OA
HETATM    3  N   UNK     0     146.675 145.945 140.950  0.00  0.00    -0.307 N 
HETATM    4  N   UNK     0     150.131 145.881 141.136  0.00  0.00    -0.241 NA
HETATM    5  C   UNK     0     148.340 143.787 141.469  0.00  0.00     0.011 A 
HETATM    6  C   UNK     0     146.975 144.467 141.263  0.00  0.00     0.037 A 
HETATM    7  C   UNK     0     149.745 144.416 141.412  0.00  0.00     0.071 A 
HETATM    8  C   UNK     0     149.206 147.078 140.848  0.00  0.00     0.144 A 
HETATM    9  C   UNK     0     147.668 147.107 140.765  0.00  0.00     0.214 A 
HETATM   10  C   UNK     0     148.439 142.218 141.790  0.00  0.00     0.062 A 
HETATM   11  C   UNK     0     145.612 143.627 141.365  0.00  0.00     0.049 A 
HETATM   12  C   UNK     0     145.187 146.309 140.802  0.00  0.00     0.132 C 
HETATM   13  C   UNK     0     147.097 141.346 141.899  0.00  0.00     0.018 A 
HETATM   14  C   UNK     0     145.673 142.055 141.685  0.00  0.00     0.040 A 
ENDROOT
BRANCH   7  15
HETATM   15  C   UNK     0     150.920 143.452 141.665  0.00  0.00    -0.027 A 
HETATM   16  C   UNK     0     151.720 143.542 142.977  0.00  0.00     0.024 A 
HETATM   17  C   UNK     0     152.894 142.579 143.230  0.00  0.00     0.004 A 
HETATM   18  C   UNK     0     153.268 141.526 142.171  0.00  0.00     0.001 A 
HETATM   19  C   UNK     0     152.468 141.436 140.858  0.00  0.00     0.004 A 
HETATM   20  C   UNK     0     151.293 142.399 140.605  0.00  0.00     0.024 A 
ENDBRANCH   7  15
TORSDOF 1
ENDMDL
MODEL 2
REMARK VINA RESULT:      -6.4     12.182     15.383
REMARK  1 active torsions:
REMARK  status: ('A' for Active; 'I' for Inactive)
REMARK    1  A    between atoms: C_7  and  C_10 
ROOT
HETATM    1 Cl   UNK     0     135.503 138.915 151.497  0.00  0.00    -0.091 Cl
HETATM    2  O   UNK     0     139.684 141.912 144.337  0.00  0.00    -0.169 OA
HETATM    3  N   UNK     0     138.710 140.716 146.440  0.00  0.00    -0.307 N 
HETATM    4  N   UNK     0     136.525 143.400 146.474  0.00  0.00    -0.241 NA
HETATM    5  C   UNK     0     136.648 141.246 148.219  0.00  0.00     0.011 A 
HETATM    6  C   UNK     0     137.823 140.420 147.663  0.00  0.00     0.037 A 
HETATM    7  C   UNK     0     136.071 142.572 147.690  0.00  0.00     0.071 A 
HETATM    8  C   UNK     0     137.670 143.105 145.487  0.00  0.00     0.144 A 
HETATM    9  C   UNK     0     138.642 141.911 145.471  0.00  0.00     0.214 A 
HETATM   10  C   UNK     0     135.843 140.760 149.519  0.00  0.00     0.062 A 
HETATM   11  C   UNK     0     138.273 139.051 148.367  0.00  0.00     0.049 A 
HETATM   12  C   UNK     0     139.811 139.680 146.146  0.00  0.00     0.132 C 
HETATM   13  C   UNK     0     136.266 139.396 150.249  0.00  0.00     0.018 A 
HETATM   14  C   UNK     0     137.490 138.535 149.669  0.00  0.00     0.040 A 
ENDROOT
BRANCH   7  15
HETATM   15  C   UNK     0     134.882 143.147 148.482  0.00  0.00    -0.027 A 
HETATM   16  C   UNK     0     133.449 142.681 148.167  0.00  0.00     0.024 A 
HETATM   17  C   UNK     0     132.260 143.255 148.959  0.00  0.00     0.004 A 
HETATM   18  C   UNK     0     132.504 144.296 150.066  0.00  0.00     0.001 A 
HETATM   19  C   UNK     0     133.937 144.762 150.383  0.00  0.00     0.004 A 
HETATM   20  C   UNK     0     135.126 144.188 149.591  0.00  0.00     0.024 A 
ENDBRANCH   7  15
TORSDOF 1
ENDMDL
MODEL 3
REMARK VINA RESULT:      -6.3     18.187     20.085
REMARK  1 active torsions:
REMARK  status: ('A' for Active; 'I' for Inactive)
REMARK    1  A    between atoms: C_7  and  C_10 
ROOT
HETATM    1 Cl   UNK     0     138.382 133.924 153.188  0.00  0.00    -0.091 Cl
HETATM    2  O   UNK     0     142.341 127.436 157.657  0.00  0.00    -0.169 OA
HETATM    3  N   UNK     0     140.822 129.174 156.441  0.00  0.00    -0.307 N 
HETATM    4  N   UNK     0     143.841 130.639 155.595  0.00  0.00    -0.241 NA
HETATM    5  C   UNK     0     141.274 131.463 154.941  0.00  0.00     0.011 A 
HETATM    6  C   UNK     0     140.389 130.397 155.612  0.00  0.00     0.037 A 
HETATM    7  C   UNK     0     142.810 131.571 154.933  0.00  0.00     0.071 A 
HETATM    8  C   UNK     0     143.590 129.368 156.428  0.00  0.00     0.144 A 
HETATM    9  C   UNK     0     142.247 128.716 156.804  0.00  0.00     0.214 A 
HETATM   10  C   UNK     0     140.621 132.672 154.112  0.00  0.00     0.062 A 
HETATM   11  C   UNK     0     138.791 130.464 155.501  0.00  0.00     0.049 A 
HETATM   12  C   UNK     0     139.680 128.292 156.979  0.00  0.00     0.132 C 
HETATM   13  C   UNK     0     139.025 132.771 153.980  0.00  0.00     0.018 A 
HETATM   14  C   UNK     0     138.103 131.659 154.679  0.00  0.00     0.040 A 
ENDROOT
BRANCH   7  15
HETATM   15  C   UNK     0     143.392 132.770 154.162  0.00  0.00    -0.027 A 
HETATM   16  C   UNK     0     143.580 134.124 154.870  0.00  0.00     0.024 A 
HETATM   17  C   UNK     0     144.163 135.323 154.099  0.00  0.00     0.004 A 
HETATM   18  C   UNK     0     144.557 135.168 152.619  0.00  0.00     0.001 A 
HETATM   19  C   UNK     0     144.369 133.814 151.909  0.00  0.00     0.004 A 
HETATM   20  C   UNK     0     143.787 132.615 152.681  0.00  0.00     0.024 A 
ENDBRANCH   7  15
TORSDOF 1
ENDMDL
MODEL 4
REMARK VINA RESULT:      -6.2    101.679    104.059
REMARK  1 active torsions:
REMARK  status: ('A' for Active; 'I' for Inactive)
REMARK    1  A    between atoms: C_7  and  C_10 
ROOT
HETATM    1 Cl   UNK     0     180.850 114.892 240.005  0.00  0.00    -0.091 Cl
HETATM    2  O   UNK     0     178.105 113.716 231.710  0.00  0.00    -0.169 OA
HETATM    3  N   UNK     0     178.530 114.156 234.245  0.00  0.00    -0.307 N 
HETATM    4  N   UNK     0     181.798 113.355 233.438  0.00  0.00    -0.241 NA
HETATM    5  C   UNK     0     180.750 114.067 235.907  0.00  0.00     0.011 A 
HETATM    6  C   UNK     0     179.259 114.292 235.594  0.00  0.00     0.037 A 
HETATM    7  C   UNK     0     181.880 113.650 234.947  0.00  0.00     0.071 A 
HETATM    8  C   UNK     0     180.565 113.404 232.516  0.00  0.00     0.144 A 
HETATM    9  C   UNK     0     179.111 113.761 232.875  0.00  0.00     0.214 A 
HETATM   10  C   UNK     0     181.319 114.263 237.394  0.00  0.00     0.062 A 
HETATM   11  C   UNK     0     178.233 114.729 236.747  0.00  0.00     0.049 A 
HETATM   12  C   UNK     0     177.019 114.454 234.269  0.00  0.00     0.132 C 
HETATM   13  C   UNK     0     180.321 114.699 238.572  0.00  0.00     0.018 A 
HETATM   14  C   UNK     0     178.767 114.934 238.246  0.00  0.00     0.040 A 
ENDROOT
BRANCH   7  15
HETATM   15  C   UNK     0     183.277 113.509 235.580  0.00  0.00    -0.027 A 
HETATM   16  C   UNK     0     184.165 114.752 235.770  0.00  0.00     0.024 A 
HETATM   17  C   UNK     0     185.562 114.611 236.403  0.00  0.00     0.004 A 
HETATM   18  C   UNK     0     186.070 113.227 236.846  0.00  0.00     0.001 A 
HETATM   19  C   UNK     0     185.181 111.983 236.657  0.00  0.00     0.004 A 
HETATM   20  C   UNK     0     183.785 112.124 236.024  0.00  0.00     0.024 A 
ENDBRANCH   7  15
TORSDOF 1
ENDMDL
MODEL 5
REMARK VINA RESULT:      -6.1     27.200     28.961
REMARK  1 active torsions:
REMARK  status: ('A' for Active; 'I' for Inactive)
REMARK    1  A    between atoms: C_7  and  C_10 
ROOT
HETATM    1 Cl   UNK     0     157.880 148.478 171.619  0.00  0.00    -0.091 Cl
HETATM    2  O   UNK     0     153.050 148.263 164.247  0.00  0.00    -0.169 OA
HETATM    3  N   UNK     0     154.630 147.971 166.302  0.00  0.00    -0.307 N 
HETATM    4  N   UNK     0     153.275 151.001 167.283  0.00  0.00    -0.241 NA
HETATM    5  C   UNK     0     155.179 149.455 168.581  0.00  0.00     0.011 A 
HETATM    6  C   UNK     0     155.345 148.250 167.637  0.00  0.00     0.037 A 
HETATM    7  C   UNK     0     154.258 150.680 168.423  0.00  0.00     0.071 A 
HETATM    8  C   UNK     0     152.970 150.177 166.017  0.00  0.00     0.144 A 
HETATM    9  C   UNK     0     153.573 148.829 165.581  0.00  0.00     0.214 A 
HETATM   10  C   UNK     0     156.026 149.560 169.939  0.00  0.00     0.062 A 
HETATM   11  C   UNK     0     156.368 147.066 167.985  0.00  0.00     0.049 A 
HETATM   12  C   UNK     0     155.024 146.662 165.593  0.00  0.00     0.132 C 
HETATM   13  C   UNK     0     157.059 148.393 170.319  0.00  0.00     0.018 A 
HETATM   14  C   UNK     0     157.232 147.137 169.336  0.00  0.00     0.040 A 
ENDROOT
BRANCH   7  15
HETATM   15  C   UNK     0     154.330 151.720 169.556  0.00  0.00    -0.027 A 
HETATM   16  C   UNK     0     153.396 151.598 170.774  0.00  0.00     0.024 A 
HETATM   17  C   UNK     0     153.468 152.639 171.907  0.00  0.00     0.004 A 
HETATM   18  C   UNK     0     154.473 153.801 171.822  0.00  0.00     0.001 A 
HETATM   19  C   UNK     0     155.407 153.924 170.603  0.00  0.00     0.004 A 
HETATM   20  C   UNK     0     155.336 152.884 169.470  0.00  0.00     0.024 A 
ENDBRANCH   7  15
TORSDOF 1
ENDMDL
MODEL 6
REMARK VINA RESULT:      -5.8     52.245     53.599
REMARK  1 active torsions:
REMARK  status: ('A' for Active; 'I' for Inactive)
REMARK    1  A    between atoms: C_7  and  C_10 
ROOT
HETATM    1 Cl   UNK     0     147.690 149.785 194.599  0.00  0.00    -0.091 Cl
HETATM    2  O   UNK     0     155.666 149.861 190.842  0.00  0.00    -0.169 OA
HETATM    3  N   UNK     0     153.162 149.830 191.573  0.00  0.00    -0.307 N 
HETATM    4  N   UNK     0     154.498 149.905 194.765  0.00  0.00    -0.241 NA
HETATM    5  C   UNK     0     151.829 149.847 194.007  0.00  0.00     0.011 A 
HETATM    6  C   UNK     0     151.910 149.823 192.470  0.00  0.00     0.037 A 
HETATM    7  C   UNK     0     152.981 149.883 195.029  0.00  0.00     0.071 A 
HETATM    8  C   UNK     0     155.238 149.895 193.414  0.00  0.00     0.144 A 
HETATM    9  C   UNK     0     154.643 149.862 191.994  0.00  0.00     0.214 A 
HETATM   10  C   UNK     0     150.411 149.835 194.758  0.00  0.00     0.062 A 
HETATM   11  C   UNK     0     150.579 149.786 191.576  0.00  0.00     0.049 A 
HETATM   12  C   UNK     0     152.899 149.801 190.057  0.00  0.00     0.132 C 
HETATM   13  C   UNK     0     149.060 149.797 193.895  0.00  0.00     0.018 A 
HETATM   14  C   UNK     0     149.143 149.773 192.293  0.00  0.00     0.040 A 
ENDROOT
BRANCH   7  15
HETATM   15  C   UNK     0     152.560 149.900 196.510  0.00  0.00    -0.027 A 
HETATM   16  C   UNK     0     152.428 151.239 197.258  0.00  0.00     0.024 A 
HETATM   17  C   UNK     0     152.008 151.256 198.739  0.00  0.00     0.004 A 
HETATM   18  C   UNK     0     151.719 149.934 199.472  0.00  0.00     0.001 A 
HETATM   19  C   UNK     0     151.850 148.593 198.724  0.00  0.00     0.004 A 
HETATM   20  C   UNK     0     152.271 148.576 197.243  0.00  0.00     0.024 A 
ENDBRANCH   7  15
TORSDOF 1
ENDMDL
MODEL 7
REMARK VINA RESULT:      -5.7     32.665     34.490
REMARK  1 active torsions:
REMARK  status: ('A' for Active; 'I' for Inactive)
REMARK    1  A    between atoms: C_7  and  C_10 
ROOT
HETATM    1 Cl   UNK     0     159.174 150.860 171.671  0.00  0.00    -0.091 Cl
HETATM    2  O   UNK     0     154.080 146.780 177.599  0.00  0.00    -0.169 OA
HETATM    3  N   UNK     0     155.860 147.697 175.927  0.00  0.00    -0.307 N 
HETATM    4  N   UNK     0     153.464 150.117 175.308  0.00  0.00    -0.241 NA
HETATM    5  C   UNK     0     155.982 149.845 174.175  0.00  0.00     0.011 A 
HETATM    6  C   UNK     0     156.536 148.586 174.867  0.00  0.00     0.037 A 
HETATM    7  C   UNK     0     154.615 150.526 174.371  0.00  0.00     0.071 A 
HETATM    8  C   UNK     0     153.396 148.924 176.280  0.00  0.00     0.144 A 
HETATM    9  C   UNK     0     154.462 147.848 176.556  0.00  0.00     0.214 A 
HETATM   10  C   UNK     0     156.855 150.637 173.086  0.00  0.00     0.062 A 
HETATM   11  C   UNK     0     158.001 148.032 174.520  0.00  0.00     0.049 A 
HETATM   12  C   UNK     0     156.690 146.500 176.424  0.00  0.00     0.132 C 
HETATM   13  C   UNK     0     158.323 150.111 172.714  0.00  0.00     0.018 A 
HETATM   14  C   UNK     0     158.901 148.800 173.436  0.00  0.00     0.040 A 
ENDROOT
BRANCH   7  15
HETATM   15  C   UNK     0     154.365 151.783 173.516  0.00  0.00    -0.027 A 
HETATM   16  C   UNK     0     154.610 153.180 174.113  0.00  0.00     0.024 A 
HETATM   17  C   UNK     0     154.361 154.437 173.259  0.00  0.00     0.004 A 
HETATM   18  C   UNK     0     153.867 154.297 171.808  0.00  0.00     0.001 A 
HETATM   19  C   UNK     0     153.622 152.898 171.211  0.00  0.00     0.004 A 
HETATM   20  C   UNK     0     153.871 151.641 172.065  0.00  0.00     0.024 A 
ENDBRANCH   7  15
TORSDOF 1
ENDMDL
MODEL 8
REMARK VINA RESULT:      -5.6      2.470      3.652
REMARK  1 active torsions:
REMARK  status: ('A' for Active; 'I' for Inactive)
REMARK    1  A    between atoms: C_7  and  C_10 
ROOT
HETATM    1 Cl   UNK     0     143.329 142.629 142.164  0.00  0.00    -0.091 Cl
HETATM    2  O   UNK     0     150.497 147.379 140.219  0.00  0.00    -0.169 OA
HETATM    3  N   UNK     0     148.173 146.324 140.758  0.00  0.00    -0.307 N 
HETATM    4  N   UNK     0     150.002 143.400 141.044  0.00  0.00    -0.241 NA
HETATM    5  C   UNK     0     147.272 143.773 141.372  0.00  0.00     0.011 A 
HETATM    6  C   UNK     0     147.098 145.280 141.112  0.00  0.00     0.037 A 
HETATM    7  C   UNK     0     148.564 142.936 141.341  0.00  0.00     0.071 A 
HETATM    8  C   UNK     0     150.502 144.816 140.703  0.00  0.00     0.144 A 
HETATM    9  C   UNK     0     149.688 146.118 140.576  0.00  0.00     0.214 A 
HETATM   10  C   UNK     0     146.011 142.848 141.731  0.00  0.00     0.062 A 
HETATM   11  C   UNK     0     145.651 145.968 141.193  0.00  0.00     0.049 A 
HETATM   12  C   UNK     0     147.667 147.765 140.560  0.00  0.00     0.132 C 
HETATM   13  C   UNK     0     144.549 143.503 141.821  0.00  0.00     0.018 A 
HETATM   14  C   UNK     0     144.368 145.074 141.550  0.00  0.00     0.040 A 
ENDROOT
BRANCH   7  15
HETATM   15  C   UNK     0     148.397 141.436 141.649  0.00  0.00    -0.027 A 
HETATM   16  C   UNK     0     148.098 140.445 140.510  0.00  0.00     0.024 A 
HETATM   17  C   UNK     0     147.931 138.945 140.818  0.00  0.00     0.004 A 
HETATM   18  C   UNK     0     148.062 138.437 142.265  0.00  0.00     0.001 A 
HETATM   19  C   UNK     0     148.362 139.429 143.405  0.00  0.00     0.004 A 
HETATM   20  C   UNK     0     148.529 140.928 143.097  0.00  0.00     0.024 A 
ENDBRANCH   7  15
TORSDOF 1
ENDMDL
MODEL 9
REMARK VINA RESULT:      -5.5     58.968     60.364
REMARK  1 active torsions:
REMARK  status: ('A' for Active; 'I' for Inactive)
REMARK    1  A    between atoms: C_7  and  C_10 
ROOT
HETATM    1 Cl   UNK     0     151.120 148.423 197.408  0.00  0.00    -0.091 Cl
HETATM    2  O   UNK     0     155.420 154.168 202.530  0.00  0.00    -0.169 OA
HETATM    3  N   UNK     0     154.370 152.621 200.711  0.00  0.00    -0.307 N 
HETATM    4  N   UNK     0     152.529 151.394 203.373  0.00  0.00    -0.241 NA
HETATM    5  C   UNK     0     152.442 150.627 200.707  0.00  0.00     0.011 A 
HETATM    6  C   UNK     0     153.490 151.544 200.051  0.00  0.00     0.037 A 
HETATM    7  C   UNK     0     152.014 150.560 202.185  0.00  0.00     0.071 A 
HETATM    8  C   UNK     0     153.600 152.501 203.374  0.00  0.00     0.144 A 
HETATM    9  C   UNK     0     154.419 153.048 202.190  0.00  0.00     0.214 A 
HETATM   10  C   UNK     0     151.622 149.558 199.835  0.00  0.00     0.062 A 
HETATM   11  C   UNK     0     153.792 151.456 198.479  0.00  0.00     0.049 A 
HETATM   12  C   UNK     0     155.328 153.372 199.768  0.00  0.00     0.132 C 
HETATM   13  C   UNK     0     151.898 149.443 198.260  0.00  0.00     0.018 A 
HETATM   14  C   UNK     0     152.991 150.399 197.576  0.00  0.00     0.040 A 
ENDROOT
BRANCH   7  15
HETATM   15  C   UNK     0     150.927 149.522 202.521  0.00  0.00    -0.027 A 
HETATM   16  C   UNK     0     151.178 148.028 202.245  0.00  0.00     0.024 A 
HETATM   17  C   UNK     0     150.091 146.990 202.580  0.00  0.00     0.004 A 
HETATM   18  C   UNK     0     148.754 147.445 203.191  0.00  0.00     0.001 A 
HETATM   19  C   UNK     0     148.502 148.940 203.467  0.00  0.00     0.004 A 
HETATM   20  C   UNK     0     149.589 149.978 203.132  0.00  0.00     0.024 A 
ENDBRANCH   7  15
TORSDOF 1
ENDMDL
MODEL 10
REMARK VINA RESULT:      -5.4     31.451     33.535
REMARK  1 active torsions:
REMARK  status: ('A' for Active; 'I' for Inactive)
REMARK    1  A    between atoms: C_7  and  C_10 
ROOT
HETATM    1 Cl   UNK     0     130.983 118.915 148.016  0.00  0.00    -0.091 Cl
HETATM    2  O   UNK     0     125.145 118.706 154.620  0.00  0.00    -0.169 OA
HETATM    3  N   UNK     0     126.548 118.754 152.421  0.00  0.00    -0.307 N 
HETATM    4  N   UNK     0     129.236 118.870 154.599  0.00  0.00    -0.241 NA
HETATM    5  C   UNK     0     129.255 118.860 151.824  0.00  0.00     0.011 A 
HETATM    6  C   UNK     0     127.758 118.799 151.470  0.00  0.00     0.037 A 
HETATM    7  C   UNK     0     129.913 118.892 153.216  0.00  0.00     0.071 A 
HETATM    8  C   UNK     0     127.732 118.811 154.930  0.00  0.00     0.144 A 
HETATM    9  C   UNK     0     126.536 118.759 153.961  0.00  0.00     0.214 A 
HETATM   10  C   UNK     0     130.373 118.901 150.673  0.00  0.00     0.062 A 
HETATM   11  C   UNK     0     127.273 118.773 149.942  0.00  0.00     0.049 A 
HETATM   12  C   UNK     0     125.167 118.696 151.744  0.00  0.00     0.132 C 
HETATM   13  C   UNK     0     129.924 118.877 149.133  0.00  0.00     0.018 A 
HETATM   14  C   UNK     0     128.363 118.813 148.765  0.00  0.00     0.040 A 
ENDROOT
BRANCH   7  15
HETATM   15  C   UNK     0     131.452 118.954 153.228  0.00  0.00    -0.027 A 
HETATM   16  C   UNK     0     132.167 120.291 153.490  0.00  0.00     0.024 A 
HETATM   17  C   UNK     0     133.705 120.353 153.502  0.00  0.00     0.004 A 
HETATM   18  C   UNK     0     134.529 119.077 153.250  0.00  0.00     0.001 A 
HETATM   19  C   UNK     0     133.814 117.738 152.987  0.00  0.00     0.004 A 
HETATM   20  C   UNK     0     132.275 117.677 152.976  0.00  0.00     0.024 A 
ENDBRANCH   7  15
TORSDOF 1
ENDMDL
