MODEL 1
REMARK VINA RESULT:      -7.6      0.000      0.000
REMARK  0 active torsions:
REMARK  status: ('A' for Active; 'I' for Inactive)
ROOT
HETATM    1 Cl   UNK     0     143.560 184.446 165.329  0.00  0.00    -0.100 Cl
HETATM    2 Cl   UNK     0     142.504 183.378 163.219  0.00  0.00    -0.158 Cl
HETATM    3  O   UNK     0     144.602 178.330 158.601  0.00  0.00    -0.165 OA
HETATM    4  O   UNK     0     146.990 178.156 160.193  0.00  0.00    -0.165 OA
HETATM    5  N   UNK     0     146.319 179.982 161.929  0.00  0.00    -0.222 NA
HETATM    6  N   UNK     0     143.444 180.191 160.013  0.00  0.00    -0.217 NA
HETATM    7  C   UNK     0     144.115 181.631 162.289  0.00  0.00     0.011 A 
HETATM    8  C   UNK     0     143.198 181.239 161.115  0.00  0.00     0.077 A 
HETATM    9  C   UNK     0     145.503 181.072 162.651  0.00  0.00     0.059 A 
HETATM   10  C   UNK     0     141.859 181.995 161.032  0.00  0.00     0.001 A 
HETATM   11  C   UNK     0     144.667 179.276 159.814  0.00  0.00     0.257 A 
HETATM   12  C   UNK     0     143.431 182.776 163.179  0.00  0.00     0.059 A 
HETATM   13  C   UNK     0     145.946 179.183 160.666  0.00  0.00     0.257 A 
HETATM   14  C   UNK     0     146.303 181.619 163.929  0.00  0.00     0.048 A 
HETATM   15  C   UNK     0     144.203 183.347 164.464  0.00  0.00     0.128 A 
HETATM   16  C   UNK     0     145.649 182.764 164.841  0.00  0.00     0.036 A 
HETATM   17  C   UNK     0     141.512 183.065 162.083  0.00  0.00     0.019 A 
HETATM   18  C   UNK     0     140.867 181.681 159.896  0.00  0.00     0.028 A 
HETATM   19  C   UNK     0     140.172 183.821 162.000  0.00  0.00     0.036 A 
HETATM   20  C   UNK     0     139.528 182.436 159.812  0.00  0.00     0.005 A 
HETATM   21  C   UNK     0     139.181 183.506 160.865  0.00  0.00     0.006 A 
ENDROOT
TORSDOF 0
ENDMDL
MODEL 2
REMARK VINA RESULT:      -6.9     24.653     27.094
REMARK  0 active torsions:
REMARK  status: ('A' for Active; 'I' for Inactive)
ROOT
HETATM    1 Cl   UNK     0     114.556 186.916 152.140  0.00  0.00    -0.100 Cl
HETATM    2 Cl   UNK     0     116.958 187.879 152.267  0.00  0.00    -0.158 Cl
HETATM    3  O   UNK     0     123.505 185.037 151.755  0.00  0.00    -0.165 OA
HETATM    4  O   UNK     0     122.161 182.524 151.374  0.00  0.00    -0.165 OA
HETATM    5  N   UNK     0     119.734 183.461 151.545  0.00  0.00    -0.222 NA
HETATM    6  N   UNK     0     121.352 186.486 152.004  0.00  0.00    -0.217 NA
HETATM    7  C   UNK     0     118.624 185.972 151.951  0.00  0.00     0.011 A 
HETATM    8  C   UNK     0     119.864 186.878 152.080  0.00  0.00     0.077 A 
HETATM    9  C   UNK     0     118.566 184.452 151.713  0.00  0.00     0.059 A 
HETATM   10  C   UNK     0     119.578 188.372 152.318  0.00  0.00     0.001 A 
HETATM   11  C   UNK     0     121.967 185.091 151.779  0.00  0.00     0.257 A 
HETATM   12  C   UNK     0     117.280 186.835 152.100  0.00  0.00     0.059 A 
HETATM   13  C   UNK     0     121.247 183.745 151.575  0.00  0.00     0.257 A 
HETATM   14  C   UNK     0     117.160 183.689 151.607  0.00  0.00     0.048 A 
HETATM   15  C   UNK     0     115.856 186.104 151.999  0.00  0.00     0.128 A 
HETATM   16  C   UNK     0     115.796 184.520 151.751  0.00  0.00     0.036 A 
HETATM   17  C   UNK     0     118.125 188.873 152.411  0.00  0.00     0.019 A 
HETATM   18  C   UNK     0     120.746 189.366 152.462  0.00  0.00     0.028 A 
HETATM   19  C   UNK     0     117.839 190.368 152.648  0.00  0.00     0.036 A 
HETATM   20  C   UNK     0     120.460 190.861 152.699  0.00  0.00     0.005 A 
HETATM   21  C   UNK     0     119.007 191.361 152.793  0.00  0.00     0.006 A 
ENDROOT
TORSDOF 0
ENDMDL
MODEL 3
REMARK VINA RESULT:      -6.8     25.391     27.116
REMARK  0 active torsions:
REMARK  status: ('A' for Active; 'I' for Inactive)
ROOT
HETATM    1 Cl   UNK     0     166.112 175.065 155.686  0.00  0.00    -0.100 Cl
HETATM    2 Cl   UNK     0     167.830 176.943 155.204  0.00  0.00    -0.158 Cl
HETATM    3  O   UNK     0     169.925 180.394 149.296  0.00  0.00    -0.165 OA
HETATM    4  O   UNK     0     168.028 178.739 147.905  0.00  0.00    -0.165 OA
HETATM    5  N   UNK     0     167.196 177.424 149.997  0.00  0.00    -0.222 NA
HETATM    6  N   UNK     0     169.479 179.416 151.671  0.00  0.00    -0.217 NA
HETATM    7  C   UNK     0     167.803 177.460 152.705  0.00  0.00     0.011 A 
HETATM    8  C   UNK     0     168.883 178.554 152.800  0.00  0.00     0.077 A 
HETATM    9  C   UNK     0     167.053 176.957 151.458  0.00  0.00     0.059 A 
HETATM   10  C   UNK     0     169.440 178.823 154.211  0.00  0.00     0.001 A 
HETATM   11  C   UNK     0     169.142 179.396 150.168  0.00  0.00     0.257 A 
HETATM   12  C   UNK     0     167.505 176.837 154.153  0.00  0.00     0.059 A 
HETATM   13  C   UNK     0     168.126 178.510 149.423  0.00  0.00     0.257 A 
HETATM   14  C   UNK     0     165.952 175.796 151.572  0.00  0.00     0.048 A 
HETATM   15  C   UNK     0     166.411 175.674 154.303  0.00  0.00     0.128 A 
HETATM   16  C   UNK     0     165.629 175.150 153.004  0.00  0.00     0.036 A 
HETATM   17  C   UNK     0     168.914 178.017 155.413  0.00  0.00     0.019 A 
HETATM   18  C   UNK     0     170.525 179.897 154.419  0.00  0.00     0.028 A 
HETATM   19  C   UNK     0     169.472 178.285 156.823  0.00  0.00     0.036 A 
HETATM   20  C   UNK     0     171.082 180.165 155.829  0.00  0.00     0.005 A 
HETATM   21  C   UNK     0     170.555 179.359 157.031  0.00  0.00     0.006 A 
ENDROOT
TORSDOF 0
ENDMDL
MODEL 4
REMARK VINA RESULT:      -6.6     89.656     90.391
REMARK  0 active torsions:
REMARK  status: ('A' for Active; 'I' for Inactive)
ROOT
HETATM    1 Cl   UNK     0     192.160 131.200 220.429  0.00  0.00    -0.100 Cl
HETATM    2 Cl   UNK     0     191.078 129.600 218.704  0.00  0.00    -0.158 Cl
HETATM    3  O   UNK     0     184.945 125.920 218.474  0.00  0.00    -0.165 OA
HETATM    4  O   UNK     0     184.401 127.063 221.057  0.00  0.00    -0.165 OA
HETATM    5  N   UNK     0     186.607 128.442 221.237  0.00  0.00    -0.222 NA
HETATM    6  N   UNK     0     187.261 127.066 218.129  0.00  0.00    -0.217 NA
HETATM    7  C   UNK     0     188.828 128.811 219.614  0.00  0.00     0.011 A 
HETATM    8  C   UNK     0     188.507 127.934 218.389  0.00  0.00     0.077 A 
HETATM    9  C   UNK     0     187.983 129.037 220.881  0.00  0.00     0.059 A 
HETATM   10  C   UNK     0     189.572 127.923 217.278  0.00  0.00     0.001 A 
HETATM   11  C   UNK     0     186.029 126.861 219.031  0.00  0.00     0.257 A 
HETATM   12  C   UNK     0     190.249 129.532 219.433  0.00  0.00     0.059 A 
HETATM   13  C   UNK     0     185.738 127.473 220.414  0.00  0.00     0.257 A 
HETATM   14  C   UNK     0     188.500 129.999 222.055  0.00  0.00     0.048 A 
HETATM   15  C   UNK     0     190.797 130.501 220.587  0.00  0.00     0.128 A 
HETATM   16  C   UNK     0     189.917 130.736 221.907  0.00  0.00     0.036 A 
HETATM   17  C   UNK     0     190.858 128.756 217.434  0.00  0.00     0.019 A 
HETATM   18  C   UNK     0     189.352 127.079 216.008  0.00  0.00     0.028 A 
HETATM   19  C   UNK     0     191.924 128.745 216.323  0.00  0.00     0.036 A 
HETATM   20  C   UNK     0     190.417 127.068 214.896  0.00  0.00     0.005 A 
HETATM   21  C   UNK     0     191.703 127.901 215.054  0.00  0.00     0.006 A 
ENDROOT
TORSDOF 0
ENDMDL
MODEL 5
REMARK VINA RESULT:      -6.6     19.389     21.725
REMARK  0 active torsions:
REMARK  status: ('A' for Active; 'I' for Inactive)
ROOT
HETATM    1 Cl   UNK     0     130.021 163.799 150.781  0.00  0.00    -0.100 Cl
HETATM    2 Cl   UNK     0     132.331 163.718 151.950  0.00  0.00    -0.158 Cl
HETATM    3  O   UNK     0     136.416 168.567 155.269  0.00  0.00    -0.165 OA
HETATM    4  O   UNK     0     134.323 170.444 154.661  0.00  0.00    -0.165 OA
HETATM    5  N   UNK     0     132.761 168.754 153.434  0.00  0.00    -0.222 NA
HETATM    6  N   UNK     0     135.280 166.496 154.165  0.00  0.00    -0.217 NA
HETATM    7  C   UNK     0     132.891 166.050 152.823  0.00  0.00     0.011 A 
HETATM    8  C   UNK     0     134.249 165.629 153.417  0.00  0.00     0.077 A 
HETATM    9  C   UNK     0     132.229 167.440 152.831  0.00  0.00     0.059 A 
HETATM   10  C   UNK     0     134.626 164.147 153.239  0.00  0.00     0.001 A 
HETATM   11  C   UNK     0     135.207 167.997 154.503  0.00  0.00     0.257 A 
HETATM   12  C   UNK     0     132.166 164.796 152.135  0.00  0.00     0.059 A 
HETATM   13  C   UNK     0     134.086 169.002 154.178  0.00  0.00     0.257 A 
HETATM   14  C   UNK     0     130.796 167.673 152.150  0.00  0.00     0.048 A 
HETATM   15  C   UNK     0     130.731 164.993 151.446  0.00  0.00     0.128 A 
HETATM   16  C   UNK     0     130.042 166.441 151.454  0.00  0.00     0.036 A 
HETATM   17  C   UNK     0     133.667 163.191 152.506  0.00  0.00     0.019 A 
HETATM   18  C   UNK     0     135.962 163.620 153.796  0.00  0.00     0.028 A 
HETATM   19  C   UNK     0     134.043 161.708 152.329  0.00  0.00     0.036 A 
HETATM   20  C   UNK     0     136.339 162.137 153.618  0.00  0.00     0.005 A 
HETATM   21  C   UNK     0     135.379 161.182 152.885  0.00  0.00     0.006 A 
ENDROOT
TORSDOF 0
ENDMDL
MODEL 6
REMARK VINA RESULT:      -6.4     50.311     52.643
REMARK  0 active torsions:
REMARK  status: ('A' for Active; 'I' for Inactive)
ROOT
HETATM    1 Cl   UNK     0     150.497 165.869 206.898  0.00  0.00    -0.100 Cl
HETATM    2 Cl   UNK     0     151.193 165.304 209.329  0.00  0.00    -0.158 Cl
HETATM    3  O   UNK     0     153.751 159.449 212.552  0.00  0.00    -0.165 OA
HETATM    4  O   UNK     0     153.601 158.208 209.962  0.00  0.00    -0.165 OA
HETATM    5  N   UNK     0     152.667 160.287 208.695  0.00  0.00    -0.222 NA
HETATM    6  N   UNK     0     152.848 161.780 211.812  0.00  0.00    -0.217 NA
HETATM    7  C   UNK     0     151.987 162.880 209.412  0.00  0.00     0.011 A 
HETATM    8  C   UNK     0     152.297 162.910 210.921  0.00  0.00     0.077 A 
HETATM    9  C   UNK     0     152.152 161.713 208.422  0.00  0.00     0.059 A 
HETATM   10  C   UNK     0     152.019 164.247 211.634  0.00  0.00     0.001 A 
HETATM   11  C   UNK     0     153.224 160.341 211.412  0.00  0.00     0.257 A 
HETATM   12  C   UNK     0     151.429 164.302 208.925  0.00  0.00     0.059 A 
HETATM   13  C   UNK     0     153.144 159.676 210.025  0.00  0.00     0.257 A 
HETATM   14  C   UNK     0     151.769 161.887 206.874  0.00  0.00     0.048 A 
HETATM   15  C   UNK     0     151.036 164.511 207.384  0.00  0.00     0.128 A 
HETATM   16  C   UNK     0     151.207 163.295 206.352  0.00  0.00     0.036 A 
HETATM   17  C   UNK     0     151.467 165.444 210.838  0.00  0.00     0.019 A 
HETATM   18  C   UNK     0     152.294 164.387 213.143  0.00  0.00     0.028 A 
HETATM   19  C   UNK     0     151.190 166.781 211.550  0.00  0.00     0.036 A 
HETATM   20  C   UNK     0     152.017 165.723 213.856  0.00  0.00     0.005 A 
HETATM   21  C   UNK     0     151.464 166.920 213.059  0.00  0.00     0.006 A 
ENDROOT
TORSDOF 0
ENDMDL
MODEL 7
REMARK VINA RESULT:      -6.0     22.657     24.101
REMARK  0 active torsions:
REMARK  status: ('A' for Active; 'I' for Inactive)
ROOT
HETATM    1 Cl   UNK     0     127.172 181.429 148.807  0.00  0.00    -0.100 Cl
HETATM    2 Cl   UNK     0     127.279 179.852 146.755  0.00  0.00    -0.158 Cl
HETATM    3  O   UNK     0     123.758 173.928 144.826  0.00  0.00    -0.165 OA
HETATM    4  O   UNK     0     122.321 174.225 147.300  0.00  0.00    -0.165 OA
HETATM    5  N   UNK     0     123.545 176.386 148.093  0.00  0.00    -0.222 NA
HETATM    6  N   UNK     0     125.275 176.029 145.116  0.00  0.00    -0.217 NA
HETATM    7  C   UNK     0     125.558 177.993 147.058  0.00  0.00     0.011 A 
HETATM    8  C   UNK     0     125.898 177.300 145.724  0.00  0.00     0.077 A 
HETATM    9  C   UNK     0     124.511 177.586 148.111  0.00  0.00     0.059 A 
HETATM   10  C   UNK     0     127.007 177.966 144.889  0.00  0.00     0.001 A 
HETATM   11  C   UNK     0     124.157 175.138 145.691  0.00  0.00     0.257 A 
HETATM   12  C   UNK     0     126.475 179.291 147.267  0.00  0.00     0.059 A 
HETATM   13  C   UNK     0     123.388 175.297 147.016  0.00  0.00     0.257 A 
HETATM   14  C   UNK     0     124.309 178.450 149.447  0.00  0.00     0.048 A 
HETATM   15  C   UNK     0     126.300 180.179 148.591  0.00  0.00     0.128 A 
HETATM   16  C   UNK     0     125.210 179.755 149.688  0.00  0.00     0.036 A 
HETATM   17  C   UNK     0     127.698 179.242 145.404  0.00  0.00     0.019 A 
HETATM   18  C   UNK     0     127.426 177.355 143.538  0.00  0.00     0.028 A 
HETATM   19  C   UNK     0     128.808 179.908 144.569  0.00  0.00     0.036 A 
HETATM   20  C   UNK     0     128.535 178.021 142.703  0.00  0.00     0.005 A 
HETATM   21  C   UNK     0     129.226 179.297 143.219  0.00  0.00     0.006 A 
ENDROOT
TORSDOF 0
ENDMDL
MODEL 8
REMARK VINA RESULT:      -5.8     85.950     86.581
REMARK  0 active torsions:
REMARK  status: ('A' for Active; 'I' for Inactive)
ROOT
HETATM    1 Cl   UNK     0     180.893 144.332 230.605  0.00  0.00    -0.100 Cl
HETATM    2 Cl   UNK     0     180.557 141.950 229.644  0.00  0.00    -0.158 Cl
HETATM    3  O   UNK     0     183.777 138.140 224.513  0.00  0.00    -0.165 OA
HETATM    4  O   UNK     0     185.458 140.444 224.144  0.00  0.00    -0.165 OA
HETATM    5  N   UNK     0     184.353 141.913 225.992  0.00  0.00    -0.222 NA
HETATM    6  N   UNK     0     182.329 139.141 226.437  0.00  0.00    -0.217 NA
HETATM    7  C   UNK     0     182.272 141.562 227.795  0.00  0.00     0.011 A 
HETATM    8  C   UNK     0     181.789 140.131 227.487  0.00  0.00     0.077 A 
HETATM    9  C   UNK     0     183.412 142.354 227.130  0.00  0.00     0.059 A 
HETATM   10  C   UNK     0     180.612 139.624 228.340  0.00  0.00     0.001 A 
HETATM   11  C   UNK     0     183.484 139.337 225.437  0.00  0.00     0.257 A 
HETATM   12  C   UNK     0     181.400 142.206 228.976  0.00  0.00     0.059 A 
HETATM   13  C   UNK     0     184.385 140.571 225.239  0.00  0.00     0.257 A 
HETATM   14  C   UNK     0     183.759 143.848 227.601  0.00  0.00     0.048 A 
HETATM   15  C   UNK     0     181.720 143.698 229.472  0.00  0.00     0.128 A 
HETATM   16  C   UNK     0     182.908 144.524 228.779  0.00  0.00     0.036 A 
HETATM   17  C   UNK     0     179.996 140.534 229.420  0.00  0.00     0.019 A 
HETATM   18  C   UNK     0     180.051 138.207 228.115  0.00  0.00     0.028 A 
HETATM   19  C   UNK     0     178.819 140.027 230.273  0.00  0.00     0.036 A 
HETATM   20  C   UNK     0     178.874 137.700 228.968  0.00  0.00     0.005 A 
HETATM   21  C   UNK     0     178.258 138.610 230.048  0.00  0.00     0.006 A 
ENDROOT
TORSDOF 0
ENDMDL
MODEL 9
REMARK VINA RESULT:      -5.7     56.019     57.951
REMARK  0 active torsions:
REMARK  status: ('A' for Active; 'I' for Inactive)
ROOT
HETATM    1 Cl   UNK     0     180.403 144.324 147.328  0.00  0.00    -0.100 Cl
HETATM    2 Cl   UNK     0     180.692 143.972 144.778  0.00  0.00    -0.158 Cl
HETATM    3  O   UNK     0     183.266 138.658 140.735  0.00  0.00    -0.165 OA
HETATM    4  O   UNK     0     183.749 137.282 143.214  0.00  0.00    -0.165 OA
HETATM    5  N   UNK     0     182.833 139.159 144.775  0.00  0.00    -0.222 NA
HETATM    6  N   UNK     0     182.251 140.815 141.791  0.00  0.00    -0.217 NA
HETATM    7  C   UNK     0     181.734 141.676 144.379  0.00  0.00     0.011 A 
HETATM    8  C   UNK     0     181.750 141.820 142.845  0.00  0.00     0.077 A 
HETATM    9  C   UNK     0     182.216 140.493 145.237  0.00  0.00     0.059 A 
HETATM   10  C   UNK     0     181.190 143.144 142.292  0.00  0.00     0.001 A 
HETATM   11  C   UNK     0     182.861 139.418 142.012  0.00  0.00     0.257 A 
HETATM   12  C   UNK     0     181.114 142.989 145.060  0.00  0.00     0.059 A 
HETATM   13  C   UNK     0     183.120 138.681 143.339  0.00  0.00     0.257 A 
HETATM   14  C   UNK     0     182.111 140.540 146.837  0.00  0.00     0.048 A 
HETATM   15  C   UNK     0     180.995 143.070 146.658  0.00  0.00     0.128 A 
HETATM   16  C   UNK     0     181.497 141.837 147.552  0.00  0.00     0.036 A 
HETATM   17  C   UNK     0     180.661 144.220 143.259  0.00  0.00     0.019 A 
HETATM   18  C   UNK     0     181.159 143.392 140.772  0.00  0.00     0.028 A 
HETATM   19  C   UNK     0     180.101 145.544 142.705  0.00  0.00     0.036 A 
HETATM   20  C   UNK     0     180.599 144.715 140.219  0.00  0.00     0.005 A 
HETATM   21  C   UNK     0     180.070 145.791 141.186  0.00  0.00     0.006 A 
ENDROOT
TORSDOF 0
ENDMDL
MODEL 10
REMARK VINA RESULT:      -5.6     38.800     41.579
REMARK  0 active torsions:
REMARK  status: ('A' for Active; 'I' for Inactive)
ROOT
HETATM    1 Cl   UNK     0     169.754 161.870 191.255  0.00  0.00    -0.100 Cl
HETATM    2 Cl   UNK     0     167.902 163.519 190.505  0.00  0.00    -0.158 Cl
HETATM    3  O   UNK     0     165.847 170.027 192.657  0.00  0.00    -0.165 OA
HETATM    4  O   UNK     0     167.964 169.830 194.594  0.00  0.00    -0.165 OA
HETATM    5  N   UNK     0     168.790 167.460 193.885  0.00  0.00    -0.222 NA
HETATM    6  N   UNK     0     166.241 167.697 191.555  0.00  0.00    -0.217 NA
HETATM    7  C   UNK     0     168.027 165.611 191.962  0.00  0.00     0.011 A 
HETATM    8  C   UNK     0     166.848 166.312 191.261  0.00  0.00     0.077 A 
HETATM    9  C   UNK     0     168.891 166.122 193.129  0.00  0.00     0.059 A 
HETATM   10  C   UNK     0     166.187 165.523 190.114  0.00  0.00     0.001 A 
HETATM   11  C   UNK     0     166.666 168.723 192.623  0.00  0.00     0.257 A 
HETATM   12  C   UNK     0     168.296 164.172 191.306  0.00  0.00     0.059 A 
HETATM   13  C   UNK     0     167.799 168.618 193.660  0.00  0.00     0.257 A 
HETATM   14  C   UNK     0     170.084 165.229 193.722  0.00  0.00     0.048 A 
HETATM   15  C   UNK     0     169.481 163.253 191.873  0.00  0.00     0.128 A 
HETATM   16  C   UNK     0     170.381 163.786 193.090  0.00  0.00     0.036 A 
HETATM   17  C   UNK     0     166.714 164.127 189.736  0.00  0.00     0.019 A 
HETATM   18  C   UNK     0     164.999 166.132 189.346  0.00  0.00     0.028 A 
HETATM   19  C   UNK     0     166.054 163.338 188.590  0.00  0.00     0.036 A 
HETATM   20  C   UNK     0     164.338 165.344 188.200  0.00  0.00     0.005 A 
HETATM   21  C   UNK     0     164.866 163.947 187.822  0.00  0.00     0.006 A 
ENDROOT
TORSDOF 0
ENDMDL
