MODEL 1
REMARK VINA RESULT:      -6.6      0.000      0.000
REMARK  1 active torsions:
REMARK  status: ('A' for Active; 'I' for Inactive)
REMARK    1  A    between atoms: C_10  and  C_15 
ROOT
HETATM    1 Cl   UNK     0     169.710 106.703 206.684  0.00  0.00    -0.091 Cl
HETATM    2  N   UNK     0     174.312 110.820 207.670  0.00  0.00    -0.300 N 
HETATM    3  N   UNK     0     171.895 113.152 206.837  0.00  0.00    -0.243 NA
HETATM    4  N   UNK     0     176.638 111.426 208.272  0.00  0.00    -0.251 NA
HETATM    5  C   UNK     0     173.076 109.946 207.389  0.00  0.00     0.040 A 
HETATM    6  C   UNK     0     174.441 112.353 207.599  0.00  0.00     0.086 A 
HETATM    7  C   UNK     0     171.662 110.389 206.966  0.00  0.00     0.012 A 
HETATM    8  C   UNK     0     173.365 113.391 207.228  0.00  0.00     0.114 A 
HETATM    9  C   UNK     0     171.137 111.817 206.721  0.00  0.00     0.077 A 
HETATM   10  C   UNK     0     175.671 110.254 208.086  0.00  0.00     0.120 A 
HETATM   11  C   UNK     0     175.879 112.721 207.971  0.00  0.00     0.172 A 
HETATM   12  C   UNK     0     173.424 108.394 207.594  0.00  0.00     0.049 A 
HETATM   13  C   UNK     0     170.500 109.312 206.720  0.00  0.00     0.062 A 
HETATM   14  C   UNK     0     176.008 108.764 208.284  0.00  0.00     0.072 C 
HETATM   15  C   UNK     0     172.286 107.289 207.356  0.00  0.00     0.040 A 
HETATM   16  C   UNK     0     170.814 107.751 206.916  0.00  0.00     0.018 A 
ENDROOT
BRANCH   9  17
HETATM   17  C   UNK     0     169.658 111.921 206.304  0.00  0.00     0.018 A 
HETATM   18  C   UNK     0     168.554 111.929 207.379  0.00  0.00     0.115 A 
HETATM   19  F   UNK     0     168.930 111.834 208.870  0.00  0.00    -0.209 F 
HETATM   20  C   UNK     0     167.076 112.033 206.963  0.00  0.00     0.056 A 
HETATM   21  C   UNK     0     166.700 112.129 205.472  0.00  0.00     0.007 A 
HETATM   22  C   UNK     0     167.803 112.120 204.399  0.00  0.00     0.005 A 
HETATM   23  C   UNK     0     169.282 112.016 204.814  0.00  0.00     0.030 A 
ENDBRANCH   9  17
TORSDOF 1
ENDMDL
MODEL 2
REMARK VINA RESULT:      -6.5     62.432     64.418
REMARK  1 active torsions:
REMARK  status: ('A' for Active; 'I' for Inactive)
REMARK    1  A    between atoms: C_10  and  C_15 
ROOT
HETATM    1 Cl   UNK     0     179.171 133.690 143.822  0.00  0.00    -0.091 Cl
HETATM    2  N   UNK     0     177.401 130.216 148.712  0.00  0.00    -0.300 N 
HETATM    3  N   UNK     0     174.871 129.189 146.586  0.00  0.00    -0.243 NA
HETATM    4  N   UNK     0     177.642 129.396 151.038  0.00  0.00    -0.251 NA
HETATM    5  C   UNK     0     177.698 131.002 147.421  0.00  0.00     0.040 A 
HETATM    6  C   UNK     0     176.261 129.220 148.988  0.00  0.00     0.086 A 
HETATM    7  C   UNK     0     176.927 130.985 146.087  0.00  0.00     0.012 A 
HETATM    8  C   UNK     0     175.134 128.762 148.042  0.00  0.00     0.114 A 
HETATM    9  C   UNK     0     175.668 130.178 145.716  0.00  0.00     0.077 A 
HETATM   10  C   UNK     0     178.251 130.321 149.980  0.00  0.00     0.120 A 
HETATM   11  C   UNK     0     176.415 128.717 150.426  0.00  0.00     0.172 A 
HETATM   12  C   UNK     0     178.999 131.922 147.607  0.00  0.00     0.049 A 
HETATM   13  C   UNK     0     177.403 131.887 144.849  0.00  0.00     0.062 A 
HETATM   14  C   UNK     0     179.500 131.204 150.161  0.00  0.00     0.072 C 
HETATM   15  C   UNK     0     179.503 132.836 146.390  0.00  0.00     0.040 A 
HETATM   16  C   UNK     0     178.700 132.818 145.001  0.00  0.00     0.018 A 
ENDROOT
BRANCH   9  17
HETATM   17  C   UNK     0     175.138 130.389 144.286  0.00  0.00     0.018 A 
HETATM   18  C   UNK     0     175.570 129.433 143.157  0.00  0.00     0.115 A 
HETATM   19  F   UNK     0     176.530 128.267 143.459  0.00  0.00    -0.209 F 
HETATM   20  C   UNK     0     175.040 129.643 141.727  0.00  0.00     0.056 A 
HETATM   21  C   UNK     0     174.080 130.808 141.424  0.00  0.00     0.007 A 
HETATM   22  C   UNK     0     173.649 131.763 142.552  0.00  0.00     0.005 A 
HETATM   23  C   UNK     0     174.178 131.553 143.984  0.00  0.00     0.030 A 
ENDBRANCH   9  17
TORSDOF 1
ENDMDL
MODEL 3
REMARK VINA RESULT:      -6.4     45.519     48.204
REMARK  1 active torsions:
REMARK  status: ('A' for Active; 'I' for Inactive)
REMARK    1  A    between atoms: C_10  and  C_15 
ROOT
HETATM    1 Cl   UNK     0     164.054 147.940 176.125  0.00  0.00    -0.091 Cl
HETATM    2  N   UNK     0     161.646 147.551 181.884  0.00  0.00    -0.300 N 
HETATM    3  N   UNK     0     162.163 150.973 181.923  0.00  0.00    -0.243 NA
HETATM    4  N   UNK     0     160.675 146.298 183.789  0.00  0.00    -0.251 NA
HETATM    5  C   UNK     0     162.255 147.821 180.494  0.00  0.00     0.040 A 
HETATM    6  C   UNK     0     161.343 148.554 183.011  0.00  0.00     0.086 A 
HETATM    7  C   UNK     0     162.710 149.164 179.890  0.00  0.00     0.012 A 
HETATM    8  C   UNK     0     161.573 150.078 183.029  0.00  0.00     0.114 A 
HETATM    9  C   UNK     0     162.669 150.566 180.527  0.00  0.00     0.077 A 
HETATM   10  C   UNK     0     161.232 146.160 182.369  0.00  0.00     0.120 A 
HETATM   11  C   UNK     0     160.744 147.775 184.184  0.00  0.00     0.172 A 
HETATM   12  C   UNK     0     162.382 146.458 179.660  0.00  0.00     0.049 A 
HETATM   13  C   UNK     0     163.324 149.234 178.411  0.00  0.00     0.062 A 
HETATM   14  C   UNK     0     161.354 144.850 181.569  0.00  0.00     0.072 C 
HETATM   15  C   UNK     0     162.992 146.492 178.177  0.00  0.00     0.040 A 
HETATM   16  C   UNK     0     163.466 147.889 177.548  0.00  0.00     0.018 A 
ENDROOT
BRANCH   9  17
HETATM   17  C   UNK     0     163.205 151.712 179.649  0.00  0.00     0.018 A 
HETATM   18  C   UNK     0     162.285 152.381 178.610  0.00  0.00     0.115 A 
HETATM   19  F   UNK     0     160.829 151.902 178.449  0.00  0.00    -0.209 F 
HETATM   20  C   UNK     0     162.820 153.527 177.732  0.00  0.00     0.056 A 
HETATM   21  C   UNK     0     164.275 154.005 177.894  0.00  0.00     0.007 A 
HETATM   22  C   UNK     0     165.194 153.337 178.932  0.00  0.00     0.005 A 
HETATM   23  C   UNK     0     164.659 152.190 179.811  0.00  0.00     0.030 A 
ENDBRANCH   9  17
TORSDOF 1
ENDMDL
MODEL 4
REMARK VINA RESULT:      -6.3     59.162     61.563
REMARK  1 active torsions:
REMARK  status: ('A' for Active; 'I' for Inactive)
REMARK    1  A    between atoms: C_10  and  C_15 
ROOT
HETATM    1 Cl   UNK     0     162.397 148.232 162.505  0.00  0.00    -0.091 Cl
HETATM    2  N   UNK     0     168.000 150.813 161.479  0.00  0.00    -0.300 N 
HETATM    3  N   UNK     0     166.147 153.655 160.796  0.00  0.00    -0.243 NA
HETATM    4  N   UNK     0     170.474 150.741 161.361  0.00  0.00    -0.251 NA
HETATM    5  C   UNK     0     166.550 150.337 161.692  0.00  0.00     0.040 A 
HETATM    6  C   UNK     0     168.500 152.209 161.065  0.00  0.00     0.086 A 
HETATM    7  C   UNK     0     165.244 151.139 161.542  0.00  0.00     0.012 A 
HETATM    8  C   UNK     0     167.675 153.474 160.761  0.00  0.00     0.114 A 
HETATM    9  C   UNK     0     165.065 152.616 161.144  0.00  0.00     0.077 A 
HETATM   10  C   UNK     0     169.222 149.911 161.661  0.00  0.00     0.120 A 
HETATM   11  C   UNK     0     170.028 152.158 160.994  0.00  0.00     0.172 A 
HETATM   12  C   UNK     0     166.523 148.791 162.121  0.00  0.00     0.049 A 
HETATM   13  C   UNK     0     163.820 150.451 161.812  0.00  0.00     0.062 A 
HETATM   14  C   UNK     0     169.198 148.427 162.072  0.00  0.00     0.072 C 
HETATM   15  C   UNK     0     165.117 148.072 162.398  0.00  0.00     0.040 A 
HETATM   16  C   UNK     0     163.756 148.908 162.243  0.00  0.00     0.018 A 
ENDROOT
BRANCH   9  17
HETATM   17  C   UNK     0     163.610 153.119 161.085  0.00  0.00     0.018 A 
HETATM   18  C   UNK     0     162.784 152.937 159.798  0.00  0.00     0.115 A 
HETATM   19  F   UNK     0     163.413 152.253 158.569  0.00  0.00    -0.209 F 
HETATM   20  C   UNK     0     161.330 153.440 159.738  0.00  0.00     0.056 A 
HETATM   21  C   UNK     0     160.702 154.125 160.967  0.00  0.00     0.007 A 
HETATM   22  C   UNK     0     161.528 154.307 162.253  0.00  0.00     0.005 A 
HETATM   23  C   UNK     0     162.982 153.804 162.313  0.00  0.00     0.030 A 
ENDBRANCH   9  17
TORSDOF 1
ENDMDL
MODEL 5
REMARK VINA RESULT:      -6.2     57.233     60.614
REMARK  1 active torsions:
REMARK  status: ('A' for Active; 'I' for Inactive)
REMARK    1  A    between atoms: C_10  and  C_15 
ROOT
HETATM    1 Cl   UNK     0     145.600 129.806 150.928  0.00  0.00    -0.091 Cl
HETATM    2  N   UNK     0     148.235 127.876 156.261  0.00  0.00    -0.300 N 
HETATM    3  N   UNK     0     146.641 130.636 157.608  0.00  0.00    -0.243 NA
HETATM    4  N   UNK     0     149.636 126.327 157.595  0.00  0.00    -0.251 NA
HETATM    5  C   UNK     0     147.516 128.485 155.042  0.00  0.00     0.040 A 
HETATM    6  C   UNK     0     148.243 128.372 157.718  0.00  0.00     0.086 A 
HETATM    7  C   UNK     0     146.627 129.741 154.980  0.00  0.00     0.012 A 
HETATM    8  C   UNK     0     147.533 129.601 158.318  0.00  0.00     0.114 A 
HETATM    9  C   UNK     0     146.238 130.698 156.123  0.00  0.00     0.077 A 
HETATM   10  C   UNK     0     149.097 126.613 156.190  0.00  0.00     0.120 A 
HETATM   11  C   UNK     0     149.109 127.412 158.536  0.00  0.00     0.172 A 
HETATM   12  C   UNK     0     147.803 127.614 153.726  0.00  0.00     0.049 A 
HETATM   13  C   UNK     0     145.964 130.213 153.599  0.00  0.00     0.062 A 
HETATM   14  C   UNK     0     149.374 125.776 154.928  0.00  0.00     0.072 C 
HETATM   15  C   UNK     0     147.156 128.058 152.327  0.00  0.00     0.040 A 
HETATM   16  C   UNK     0     146.230 129.366 152.263  0.00  0.00     0.018 A 
ENDROOT
BRANCH   9  17
HETATM   17  C   UNK     0     145.324 131.873 155.726  0.00  0.00     0.018 A 
HETATM   18  C   UNK     0     145.941 133.184 155.200  0.00  0.00     0.115 A 
HETATM   19  F   UNK     0     147.470 133.318 155.071  0.00  0.00    -0.209 F 
HETATM   20  C   UNK     0     145.028 134.358 154.804  0.00  0.00     0.056 A 
HETATM   21  C   UNK     0     143.499 134.224 154.933  0.00  0.00     0.007 A 
HETATM   22  C   UNK     0     142.884 132.914 155.459  0.00  0.00     0.005 A 
HETATM   23  C   UNK     0     143.796 131.738 155.855  0.00  0.00     0.030 A 
ENDBRANCH   9  17
TORSDOF 1
ENDMDL
MODEL 6
REMARK VINA RESULT:      -6.2     53.142     56.130
REMARK  1 active torsions:
REMARK  status: ('A' for Active; 'I' for Inactive)
REMARK    1  A    between atoms: C_10  and  C_15 
ROOT
HETATM    1 Cl   UNK     0     154.008 153.514 170.967  0.00  0.00    -0.091 Cl
HETATM    2  N   UNK     0     154.348 148.172 167.734  0.00  0.00    -0.300 N 
HETATM    3  N   UNK     0     155.816 146.956 170.623  0.00  0.00    -0.243 NA
HETATM    4  N   UNK     0     153.980 146.792 165.709  0.00  0.00    -0.251 NA
HETATM    5  C   UNK     0     154.342 149.400 168.664  0.00  0.00     0.040 A 
HETATM    6  C   UNK     0     154.877 146.754 168.019  0.00  0.00     0.086 A 
HETATM    7  C   UNK     0     154.863 149.512 170.110  0.00  0.00     0.012 A 
HETATM    8  C   UNK     0     155.530 146.213 169.304  0.00  0.00     0.114 A 
HETATM    9  C   UNK     0     155.519 148.424 170.981  0.00  0.00     0.077 A 
HETATM   10  C   UNK     0     153.796 148.189 166.307  0.00  0.00     0.120 A 
HETATM   11  C   UNK     0     154.647 145.907 166.765  0.00  0.00     0.172 A 
HETATM   12  C   UNK     0     153.685 150.663 167.925  0.00  0.00     0.049 A 
HETATM   13  C   UNK     0     154.763 150.895 170.915  0.00  0.00     0.062 A 
HETATM   14  C   UNK     0     153.165 149.401 165.596  0.00  0.00     0.072 C 
HETATM   15  C   UNK     0     153.569 152.061 168.702  0.00  0.00     0.040 A 
HETATM   16  C   UNK     0     154.111 152.178 170.207  0.00  0.00     0.018 A 
ENDROOT
BRANCH   9  17
HETATM   17  C   UNK     0     155.932 148.864 172.398  0.00  0.00     0.018 A 
HETATM   18  C   UNK     0     157.386 149.292 172.677  0.00  0.00     0.115 A 
HETATM   19  F   UNK     0     158.424 149.281 171.540  0.00  0.00    -0.209 F 
HETATM   20  C   UNK     0     157.800 149.732 174.093  0.00  0.00     0.056 A 
HETATM   21  C   UNK     0     156.761 149.743 175.230  0.00  0.00     0.007 A 
HETATM   22  C   UNK     0     155.309 149.315 174.951  0.00  0.00     0.005 A 
HETATM   23  C   UNK     0     154.894 148.875 173.534  0.00  0.00     0.030 A 
ENDBRANCH   9  17
TORSDOF 1
ENDMDL
MODEL 7
REMARK VINA RESULT:      -6.2     30.125     32.566
REMARK  1 active torsions:
REMARK  status: ('A' for Active; 'I' for Inactive)
REMARK    1  A    between atoms: C_10  and  C_15 
ROOT
HETATM    1 Cl   UNK     0     145.359 114.620 196.380  0.00  0.00    -0.091 Cl
HETATM    2  N   UNK     0     141.393 118.638 193.689  0.00  0.00    -0.300 N 
HETATM    3  N   UNK     0     140.966 119.797 196.921  0.00  0.00    -0.243 NA
HETATM    4  N   UNK     0     140.213 119.595 191.731  0.00  0.00    -0.251 NA
HETATM    5  C   UNK     0     142.329 117.727 194.506  0.00  0.00     0.040 A 
HETATM    6  C   UNK     0     140.491 119.781 194.187  0.00  0.00     0.086 A 
HETATM    7  C   UNK     0     142.593 117.735 196.024  0.00  0.00     0.012 A 
HETATM    8  C   UNK     0     140.300 120.297 195.626  0.00  0.00     0.114 A 
HETATM    9  C   UNK     0     141.986 118.657 197.098  0.00  0.00     0.077 A 
HETATM   10  C   UNK     0     141.218 118.527 192.172  0.00  0.00     0.120 A 
HETATM   11  C   UNK     0     139.765 120.368 192.974  0.00  0.00     0.172 A 
HETATM   12  C   UNK     0     143.070 116.675 193.547  0.00  0.00     0.049 A 
HETATM   13  C   UNK     0     143.616 116.693 196.687  0.00  0.00     0.062 A 
HETATM   14  C   UNK     0     141.928 117.519 191.251  0.00  0.00     0.072 C 
HETATM   15  C   UNK     0     144.099 115.619 194.178  0.00  0.00     0.040 A 
HETATM   16  C   UNK     0     144.374 115.628 195.758  0.00  0.00     0.018 A 
ENDROOT
BRANCH   9  17
HETATM   17  C   UNK     0     142.463 118.404 198.540  0.00  0.00     0.018 A 
HETATM   18  C   UNK     0     143.802 118.995 199.023  0.00  0.00     0.115 A 
HETATM   19  F   UNK     0     144.662 119.839 198.063  0.00  0.00    -0.209 F 
HETATM   20  C   UNK     0     144.279 118.743 200.464  0.00  0.00     0.056 A 
HETATM   21  C   UNK     0     143.419 117.900 201.424  0.00  0.00     0.007 A 
HETATM   22  C   UNK     0     142.082 117.309 200.942  0.00  0.00     0.005 A 
HETATM   23  C   UNK     0     141.603 117.562 199.500  0.00  0.00     0.030 A 
ENDBRANCH   9  17
TORSDOF 1
ENDMDL
MODEL 8
REMARK VINA RESULT:      -6.1     60.419     63.947
REMARK  1 active torsions:
REMARK  status: ('A' for Active; 'I' for Inactive)
REMARK    1  A    between atoms: C_10  and  C_15 
ROOT
HETATM    1 Cl   UNK     0     144.022 136.110 153.223  0.00  0.00    -0.091 Cl
HETATM    2  N   UNK     0     143.636 130.705 156.345  0.00  0.00    -0.300 N 
HETATM    3  N   UNK     0     140.367 130.717 155.210  0.00  0.00    -0.243 NA
HETATM    4  N   UNK     0     144.581 128.901 157.757  0.00  0.00    -0.251 NA
HETATM    5  C   UNK     0     143.561 132.011 155.532  0.00  0.00     0.040 A 
HETATM    6  C   UNK     0     142.531 129.662 156.591  0.00  0.00     0.086 A 
HETATM    7  C   UNK     0     142.360 132.597 154.765  0.00  0.00     0.012 A 
HETATM    8  C   UNK     0     141.076 129.667 156.086  0.00  0.00     0.114 A 
HETATM    9  C   UNK     0     140.938 132.020 154.622  0.00  0.00     0.077 A 
HETATM   10  C   UNK     0     144.900 130.230 157.066  0.00  0.00     0.120 A 
HETATM   11  C   UNK     0     143.120 128.551 157.464  0.00  0.00     0.172 A 
HETATM   12  C   UNK     0     144.971 132.774 155.559  0.00  0.00     0.049 A 
HETATM   13  C   UNK     0     142.487 133.985 153.973  0.00  0.00     0.062 A 
HETATM   14  C   UNK     0     146.255 130.961 157.093  0.00  0.00     0.072 C 
HETATM   15  C   UNK     0     145.134 134.165 154.777  0.00  0.00     0.040 A 
HETATM   16  C   UNK     0     143.883 134.775 153.979  0.00  0.00     0.018 A 
ENDROOT
BRANCH   9  17
HETATM   17  C   UNK     0     139.960 132.859 153.779  0.00  0.00     0.018 A 
HETATM   18  C   UNK     0     139.948 132.717 152.245  0.00  0.00     0.115 A 
HETATM   19  F   UNK     0     140.915 131.736 151.555  0.00  0.00    -0.209 F 
HETATM   20  C   UNK     0     138.970 133.555 151.402  0.00  0.00     0.056 A 
HETATM   21  C   UNK     0     138.004 134.536 152.092  0.00  0.00     0.007 A 
HETATM   22  C   UNK     0     138.016 134.678 153.625  0.00  0.00     0.005 A 
HETATM   23  C   UNK     0     138.994 133.840 154.469  0.00  0.00     0.030 A 
ENDBRANCH   9  17
TORSDOF 1
ENDMDL
MODEL 9
REMARK VINA RESULT:      -6.0     98.979    101.306
REMARK  1 active torsions:
REMARK  status: ('A' for Active; 'I' for Inactive)
REMARK    1  A    between atoms: C_10  and  C_15 
ROOT
HETATM    1 Cl   UNK     0     126.232 182.870 149.900  0.00  0.00    -0.091 Cl
HETATM    2  N   UNK     0     127.515 178.862 145.274  0.00  0.00    -0.300 N 
HETATM    3  N   UNK     0     125.541 176.694 147.112  0.00  0.00    -0.243 NA
HETATM    4  N   UNK     0     128.590 178.239 143.130  0.00  0.00    -0.251 NA
HETATM    5  C   UNK     0     127.103 179.718 146.486  0.00  0.00     0.040 A 
HETATM    6  C   UNK     0     127.141 177.403 144.958  0.00  0.00     0.086 A 
HETATM    7  C   UNK     0     126.215 179.325 147.682  0.00  0.00     0.012 A 
HETATM    8  C   UNK     0     126.263 176.437 145.776  0.00  0.00     0.114 A 
HETATM    9  C   UNK     0     125.520 177.979 147.960  0.00  0.00     0.077 A 
HETATM   10  C   UNK     0     128.409 179.373 144.142  0.00  0.00     0.120 A 
HETATM   11  C   UNK     0     127.808 177.024 143.633  0.00  0.00     0.172 A 
HETATM   12  C   UNK     0     127.740 181.187 146.381  0.00  0.00     0.049 A 
HETATM   13  C   UNK     0     125.903 180.374 148.855  0.00  0.00     0.062 A 
HETATM   14  C   UNK     0     129.021 180.783 144.039  0.00  0.00     0.072 C 
HETATM   15  C   UNK     0     127.447 182.261 147.536  0.00  0.00     0.040 A 
HETATM   16  C   UNK     0     126.523 181.851 148.782  0.00  0.00     0.018 A 
ENDROOT
BRANCH   9  17
HETATM   17  C   UNK     0     124.695 177.910 149.259  0.00  0.00     0.018 A 
HETATM   18  C   UNK     0     125.360 177.447 150.569  0.00  0.00     0.115 A 
HETATM   19  F   UNK     0     126.849 177.053 150.580  0.00  0.00    -0.209 F 
HETATM   20  C   UNK     0     124.537 177.377 151.868  0.00  0.00     0.056 A 
HETATM   21  C   UNK     0     123.048 177.771 151.857  0.00  0.00     0.007 A 
HETATM   22  C   UNK     0     122.383 178.234 150.548  0.00  0.00     0.005 A 
HETATM   23  C   UNK     0     123.207 178.304 149.248  0.00  0.00     0.030 A 
ENDBRANCH   9  17
TORSDOF 1
ENDMDL
MODEL 10
REMARK VINA RESULT:      -6.0     29.153     31.023
REMARK  1 active torsions:
REMARK  status: ('A' for Active; 'I' for Inactive)
REMARK    1  A    between atoms: C_10  and  C_15 
ROOT
HETATM    1 Cl   UNK     0     158.054 134.510 225.419  0.00  0.00    -0.091 Cl
HETATM    2  N   UNK     0     163.967 136.525 225.125  0.00  0.00    -0.300 N 
HETATM    3  N   UNK     0     164.262 134.132 222.643  0.00  0.00    -0.243 NA
HETATM    4  N   UNK     0     165.839 137.981 225.842  0.00  0.00    -0.251 NA
HETATM    5  C   UNK     0     162.554 135.915 225.068  0.00  0.00     0.040 A 
HETATM    6  C   UNK     0     165.205 136.161 224.286  0.00  0.00     0.086 A 
HETATM    7  C   UNK     0     162.030 134.789 224.156  0.00  0.00     0.012 A 
HETATM    8  C   UNK     0     165.336 135.096 223.180  0.00  0.00     0.114 A 
HETATM    9  C   UNK     0     162.791 133.996 223.077  0.00  0.00     0.077 A 
HETATM   10  C   UNK     0     164.364 137.649 226.084  0.00  0.00     0.120 A 
HETATM   11  C   UNK     0     166.357 137.063 224.733  0.00  0.00     0.172 A 
HETATM   12  C   UNK     0     161.591 136.621 226.140  0.00  0.00     0.049 A 
HETATM   13  C   UNK     0     160.508 134.292 224.253  0.00  0.00     0.062 A 
HETATM   14  C   UNK     0     163.442 138.328 227.113  0.00  0.00     0.072 C 
HETATM   15  C   UNK     0     160.064 136.148 226.263  0.00  0.00     0.040 A 
HETATM   16  C   UNK     0     159.518 134.976 225.313  0.00  0.00     0.018 A 
ENDROOT
BRANCH   9  17
HETATM   17  C   UNK     0     161.971 132.925 222.334  0.00  0.00     0.018 A 
HETATM   18  C   UNK     0     161.223 133.290 221.038  0.00  0.00     0.115 A 
HETATM   19  F   UNK     0     161.295 134.726 220.485  0.00  0.00    -0.209 F 
HETATM   20  C   UNK     0     160.403 132.220 220.294  0.00  0.00     0.056 A 
HETATM   21  C   UNK     0     160.330 130.784 220.847  0.00  0.00     0.007 A 
HETATM   22  C   UNK     0     161.078 130.419 222.142  0.00  0.00     0.005 A 
HETATM   23  C   UNK     0     161.898 131.490 222.886  0.00  0.00     0.030 A 
ENDBRANCH   9  17
TORSDOF 1
ENDMDL
