MODEL 1
REMARK VINA RESULT:      -8.1      0.000      0.000
REMARK  7 active torsions:
REMARK  status: ('A' for Active; 'I' for Inactive)
REMARK    1  A    between atoms: O_1  and  C_16 
REMARK    2  A    between atoms: O_1  and  C_24 
REMARK    3  A    between atoms: O_2  and  C_18 
REMARK    4  A    between atoms: O_2  and  C_26 
REMARK    5  A    between atoms: O_5  and  C_29 
REMARK    6  A    between atoms: N_9  and  C_22 
REMARK    7  A    between atoms: C_26  and  C_29 
ROOT
HETATM    1  O   UNK     0     152.464 144.189 143.204  0.00  0.00    -0.290 OA
HETATM    2  O   UNK     0     149.970 148.861 142.557  0.00  0.00    -0.284 OA
HETATM    3  N   UNK     0     147.408 144.301 141.505  0.00  0.00    -0.254 NA
HETATM    4  C   UNK     0     149.947 145.783 142.422  0.00  0.00     0.014 A 
HETATM    5  C   UNK     0     149.936 144.245 142.354  0.00  0.00     0.060 A 
HETATM    6  C   UNK     0     148.689 146.581 142.031  0.00  0.00     0.060 A 
HETATM    7  C   UNK     0     151.217 146.524 142.881  0.00  0.00     0.043 A 
HETATM    8  C   UNK     0     148.666 143.504 141.896  0.00  0.00     0.063 A 
HETATM    9  C   UNK     0     147.419 145.840 141.573  0.00  0.00     0.063 A 
HETATM   10  C   UNK     0     151.194 143.448 142.745  0.00  0.00     0.200 A 
HETATM   11  C   UNK     0     151.229 148.063 142.948  0.00  0.00     0.121 A 
HETATM   12  C   UNK     0     148.700 148.120 142.099  0.00  0.00     0.200 A 
HETATM   13  C   UNK     0     152.475 145.728 143.271  0.00  0.00     0.082 A 
HETATM   14  C   UNK     0     148.654 141.966 141.829  0.00  0.00     0.052 C 
HETATM   15  C   UNK     0     146.161 146.637 141.182  0.00  0.00     0.052 C 
HETATM   16  C   UNK     0     152.498 148.804 143.407  0.00  0.00     0.127 A 
HETATM   17  C   UNK     0     153.745 146.469 143.730  0.00  0.00     0.058 A 
HETATM   18  C   UNK     0     153.757 148.007 143.797  0.00  0.00     0.059 A 
ENDROOT
BRANCH  12  19
HETATM   19  O   UNK     0     147.442 148.917 141.708  0.00  0.00    -0.308 OA
BRANCH  19  20
HETATM   20  C   UNK     0     146.765 149.839 142.738  0.00  0.00     0.183 C 
BRANCH  20  21
HETATM   21  C   UNK     0     147.215 149.811 144.211  0.00  0.00     0.175 C 
BRANCH  21  22
HETATM   22  O   UNK     0     147.140 148.499 145.014  0.00  0.00    -0.349 OA
HETATM   23  C   UNK     0     148.412 147.913 145.654  0.00  0.00     0.174 C 
ENDBRANCH  21  22
ENDBRANCH  20  21
ENDBRANCH  19  20
ENDBRANCH  12  19
BRANCH  16  24
HETATM   24  N   UNK     0     152.510 150.343 143.474  0.00  0.00    -0.116 N 
HETATM   25  O   UNK     0     151.613 151.076 144.489  0.00  0.00    -0.532 OA
HETATM   26  O   UNK     0     153.418 151.149 142.526  0.00  0.00    -0.532 OA
ENDBRANCH  16  24
BRANCH  10  27
HETATM   27  O   UNK     0     151.182 141.910 142.678  0.00  0.00    -0.313 OA
BRANCH  27  28
HETATM   28  C   UNK     0     152.503 141.125 142.776  0.00  0.00     0.124 C 
HETATM   29  C   UNK     0     153.370 140.914 141.521  0.00  0.00     0.033 C 
HETATM   30  C   UNK     0     152.958 140.550 144.131  0.00  0.00     0.033 C 
ENDBRANCH  27  28
ENDBRANCH  10  27
TORSDOF 7
ENDMDL
MODEL 2
REMARK VINA RESULT:      -7.2      2.053      2.970
REMARK  7 active torsions:
REMARK  status: ('A' for Active; 'I' for Inactive)
REMARK    1  A    between atoms: O_1  and  C_16 
REMARK    2  A    between atoms: O_1  and  C_24 
REMARK    3  A    between atoms: O_2  and  C_18 
REMARK    4  A    between atoms: O_2  and  C_26 
REMARK    5  A    between atoms: O_5  and  C_29 
REMARK    6  A    between atoms: N_9  and  C_22 
REMARK    7  A    between atoms: C_26  and  C_29 
ROOT
HETATM    1  O   UNK     0     149.973 143.365 142.281  0.00  0.00    -0.290 OA
HETATM    2  O   UNK     0     150.431 148.569 143.360  0.00  0.00    -0.284 OA
HETATM    3  N   UNK     0     145.905 146.665 141.274  0.00  0.00    -0.254 NA
HETATM    4  C   UNK     0     148.770 146.200 142.305  0.00  0.00     0.014 A 
HETATM    5  C   UNK     0     147.939 145.016 141.778  0.00  0.00     0.060 A 
HETATM    6  C   UNK     0     148.168 147.617 142.317  0.00  0.00     0.060 A 
HETATM    7  C   UNK     0     150.202 145.967 142.821  0.00  0.00     0.043 A 
HETATM    8  C   UNK     0     146.507 145.248 141.262  0.00  0.00     0.063 A 
HETATM    9  C   UNK     0     146.736 147.850 141.802  0.00  0.00     0.063 A 
HETATM   10  C   UNK     0     148.541 143.598 141.766  0.00  0.00     0.200 A 
HETATM   11  C   UNK     0     151.033 147.152 143.348  0.00  0.00     0.121 A 
HETATM   12  C   UNK     0     148.999 148.802 142.845  0.00  0.00     0.200 A 
HETATM   13  C   UNK     0     150.804 144.550 142.809  0.00  0.00     0.082 A 
HETATM   14  C   UNK     0     145.676 144.063 140.735  0.00  0.00     0.052 C 
HETATM   15  C   UNK     0     146.134 149.268 141.814  0.00  0.00     0.052 C 
HETATM   16  C   UNK     0     152.465 146.919 143.864  0.00  0.00     0.127 A 
HETATM   17  C   UNK     0     152.236 144.317 143.324  0.00  0.00     0.058 A 
HETATM   18  C   UNK     0     153.067 145.501 143.852  0.00  0.00     0.059 A 
ENDROOT
BRANCH  12  19
HETATM   19  O   UNK     0     148.397 150.220 142.857  0.00  0.00    -0.308 OA
BRANCH  19  20
HETATM   20  C   UNK     0     149.280 151.428 143.221  0.00  0.00     0.183 C 
BRANCH  20  21
HETATM   21  C   UNK     0     149.333 151.931 144.676  0.00  0.00     0.175 C 
BRANCH  21  22
HETATM   22  O   UNK     0     150.373 151.352 145.654  0.00  0.00    -0.349 OA
HETATM   23  C   UNK     0     150.015 150.133 146.526  0.00  0.00     0.174 C 
ENDBRANCH  21  22
ENDBRANCH  20  21
ENDBRANCH  19  20
ENDBRANCH  12  19
BRANCH  16  24
HETATM   24  N   UNK     0     153.296 148.104 144.391  0.00  0.00    -0.116 N 
HETATM   25  O   UNK     0     153.098 148.600 145.835  0.00  0.00    -0.532 OA
HETATM   26  O   UNK     0     154.325 148.792 143.474  0.00  0.00    -0.532 OA
ENDBRANCH  16  24
BRANCH  10  27
HETATM   27  O   UNK     0     147.710 142.414 141.239  0.00  0.00    -0.313 OA
BRANCH  27  28
HETATM   28  C   UNK     0     148.107 140.971 141.604  0.00  0.00     0.124 C 
HETATM   29  C   UNK     0     147.955 140.474 143.054  0.00  0.00     0.033 C 
HETATM   30  C   UNK     0     148.657 140.026 140.520  0.00  0.00     0.033 C 
ENDBRANCH  27  28
ENDBRANCH  10  27
TORSDOF 7
ENDMDL
MODEL 3
REMARK VINA RESULT:      -6.9     40.660     43.467
REMARK  7 active torsions:
REMARK  status: ('A' for Active; 'I' for Inactive)
REMARK    1  A    between atoms: O_1  and  C_16 
REMARK    2  A    between atoms: O_1  and  C_24 
REMARK    3  A    between atoms: O_2  and  C_18 
REMARK    4  A    between atoms: O_2  and  C_26 
REMARK    5  A    between atoms: O_5  and  C_29 
REMARK    6  A    between atoms: N_9  and  C_22 
REMARK    7  A    between atoms: C_26  and  C_29 
ROOT
HETATM    1  O   UNK     0     150.635 149.829 183.727  0.00  0.00    -0.290 OA
HETATM    2  O   UNK     0     146.319 151.554 186.346  0.00  0.00    -0.284 OA
HETATM    3  N   UNK     0     151.148 153.413 187.644  0.00  0.00    -0.254 NA
HETATM    4  C   UNK     0     149.368 151.598 185.906  0.00  0.00     0.014 A 
HETATM    5  C   UNK     0     150.891 151.621 185.686  0.00  0.00     0.060 A 
HETATM    6  C   UNK     0     148.734 152.483 186.995  0.00  0.00     0.060 A 
HETATM    7  C   UNK     0     148.477 150.691 185.036  0.00  0.00     0.043 A 
HETATM    8  C   UNK     0     151.781 152.528 186.555  0.00  0.00     0.063 A 
HETATM    9  C   UNK     0     149.624 153.391 187.865  0.00  0.00     0.063 A 
HETATM   10  C   UNK     0     151.525 150.736 184.596  0.00  0.00     0.200 A 
HETATM   11  C   UNK     0     146.953 150.669 185.257  0.00  0.00     0.121 A 
HETATM   12  C   UNK     0     147.209 152.461 187.216  0.00  0.00     0.200 A 
HETATM   13  C   UNK     0     149.110 149.807 183.947  0.00  0.00     0.082 A 
HETATM   14  C   UNK     0     153.306 152.551 186.335  0.00  0.00     0.052 C 
HETATM   15  C   UNK     0     148.990 154.275 188.955  0.00  0.00     0.052 C 
HETATM   16  C   UNK     0     146.063 149.762 184.387  0.00  0.00     0.127 A 
HETATM   17  C   UNK     0     148.220 148.899 183.078  0.00  0.00     0.058 A 
HETATM   18  C   UNK     0     146.697 148.877 183.297  0.00  0.00     0.059 A 
ENDROOT
BRANCH  12  19
HETATM   19  O   UNK     0     146.575 153.346 188.306  0.00  0.00    -0.308 OA
BRANCH  19  20
HETATM   20  C   UNK     0     145.420 154.299 187.948  0.00  0.00     0.183 C 
BRANCH  20  21
HETATM   21  C   UNK     0     145.599 155.820 188.111  0.00  0.00     0.175 C 
BRANCH  21  22
HETATM   22  O   UNK     0     146.579 156.583 187.200  0.00  0.00    -0.349 OA
HETATM   23  C   UNK     0     147.349 157.800 187.746  0.00  0.00     0.174 C 
ENDBRANCH  21  22
ENDBRANCH  20  21
ENDBRANCH  19  20
ENDBRANCH  12  19
BRANCH  16  24
HETATM   24  N   UNK     0     144.538 149.739 184.608  0.00  0.00    -0.116 N 
HETATM   25  O   UNK     0     143.608 150.474 183.625  0.00  0.00    -0.532 OA
HETATM   26  O   UNK     0     143.945 148.982 185.810  0.00  0.00    -0.532 OA
ENDBRANCH  16  24
BRANCH  10  27
HETATM   27  O   UNK     0     153.048 150.759 184.376  0.00  0.00    -0.313 OA
BRANCH  27  28
HETATM   28  C   UNK     0     153.645 150.224 183.061  0.00  0.00     0.124 C 
HETATM   29  C   UNK     0     153.518 151.049 181.766  0.00  0.00     0.033 C 
HETATM   30  C   UNK     0     154.368 148.865 183.040  0.00  0.00     0.033 C 
ENDBRANCH  27  28
ENDBRANCH  10  27
TORSDOF 7
ENDMDL
MODEL 4
REMARK VINA RESULT:      -6.7      2.851      4.785
REMARK  7 active torsions:
REMARK  status: ('A' for Active; 'I' for Inactive)
REMARK    1  A    between atoms: O_1  and  C_16 
REMARK    2  A    between atoms: O_1  and  C_24 
REMARK    3  A    between atoms: O_2  and  C_18 
REMARK    4  A    between atoms: O_2  and  C_26 
REMARK    5  A    between atoms: O_5  and  C_29 
REMARK    6  A    between atoms: N_9  and  C_22 
REMARK    7  A    between atoms: C_26  and  C_29 
ROOT
HETATM    1  O   UNK     0     153.039 142.574 143.348  0.00  0.00    -0.290 OA
HETATM    2  O   UNK     0     148.278 144.492 141.892  0.00  0.00    -0.284 OA
HETATM    3  N   UNK     0     149.442 139.348 141.087  0.00  0.00    -0.254 NA
HETATM    4  C   UNK     0     150.253 142.138 142.109  0.00  0.00     0.014 A 
HETATM    5  C   UNK     0     151.240 140.961 142.217  0.00  0.00     0.060 A 
HETATM    6  C   UNK     0     148.860 141.920 141.489  0.00  0.00     0.060 A 
HETATM    7  C   UNK     0     150.659 143.533 142.620  0.00  0.00     0.043 A 
HETATM    8  C   UNK     0     150.834 139.566 141.706  0.00  0.00     0.063 A 
HETATM    9  C   UNK     0     148.454 140.525 140.978  0.00  0.00     0.063 A 
HETATM   10  C   UNK     0     152.633 141.179 142.837  0.00  0.00     0.200 A 
HETATM   11  C   UNK     0     149.671 144.710 142.512  0.00  0.00     0.121 A 
HETATM   12  C   UNK     0     147.872 143.097 141.381  0.00  0.00     0.200 A 
HETATM   13  C   UNK     0     152.051 143.751 143.239  0.00  0.00     0.082 A 
HETATM   14  C   UNK     0     151.822 138.389 141.814  0.00  0.00     0.052 C 
HETATM   15  C   UNK     0     147.061 140.308 140.359  0.00  0.00     0.052 C 
HETATM   16  C   UNK     0     150.077 146.105 143.023  0.00  0.00     0.127 A 
HETATM   17  C   UNK     0     152.457 145.146 143.751  0.00  0.00     0.058 A 
HETATM   18  C   UNK     0     151.470 146.323 143.643  0.00  0.00     0.059 A 
ENDROOT
BRANCH  12  19
HETATM   19  O   UNK     0     146.479 142.880 140.762  0.00  0.00    -0.308 OA
BRANCH  19  20
HETATM   20  C   UNK     0     145.215 143.159 141.594  0.00  0.00     0.183 C 
BRANCH  20  21
HETATM   21  C   UNK     0     143.949 143.710 140.911  0.00  0.00     0.175 C 
BRANCH  21  22
HETATM   22  O   UNK     0     142.902 144.482 141.735  0.00  0.00    -0.349 OA
HETATM   23  C   UNK     0     142.233 143.813 142.951  0.00  0.00     0.174 C 
ENDBRANCH  21  22
ENDBRANCH  20  21
ENDBRANCH  19  20
ENDBRANCH  12  19
BRANCH  16  24
HETATM   24  N   UNK     0     149.090 147.282 142.915  0.00  0.00    -0.116 N 
HETATM   25  O   UNK     0     149.257 148.327 141.796  0.00  0.00    -0.532 OA
HETATM   26  O   UNK     0     147.935 147.414 143.925  0.00  0.00    -0.532 OA
ENDBRANCH  16  24
BRANCH  10  27
HETATM   27  O   UNK     0     153.620 140.002 142.945  0.00  0.00    -0.313 OA
BRANCH  27  28
HETATM   28  C   UNK     0     154.179 139.591 144.319  0.00  0.00     0.124 C 
HETATM   29  C   UNK     0     153.278 139.648 145.567  0.00  0.00     0.033 C 
HETATM   30  C   UNK     0     155.641 139.121 144.446  0.00  0.00     0.033 C 
ENDBRANCH  27  28
ENDBRANCH  10  27
TORSDOF 7
ENDMDL
MODEL 5
REMARK VINA RESULT:      -6.7     18.774     22.028
REMARK  7 active torsions:
REMARK  status: ('A' for Active; 'I' for Inactive)
REMARK    1  A    between atoms: O_1  and  C_16 
REMARK    2  A    between atoms: O_1  and  C_24 
REMARK    3  A    between atoms: O_2  and  C_18 
REMARK    4  A    between atoms: O_2  and  C_26 
REMARK    5  A    between atoms: O_5  and  C_29 
REMARK    6  A    between atoms: N_9  and  C_22 
REMARK    7  A    between atoms: C_26  and  C_29 
ROOT
HETATM    1  O   UNK     0     141.342 134.399 153.689  0.00  0.00    -0.290 OA
HETATM    2  O   UNK     0     143.873 130.455 156.240  0.00  0.00    -0.284 OA
HETATM    3  N   UNK     0     138.579 130.261 155.613  0.00  0.00    -0.254 NA
HETATM    4  C   UNK     0     141.265 131.705 155.180  0.00  0.00     0.014 A 
HETATM    5  C   UNK     0     139.961 132.329 154.651  0.00  0.00     0.060 A 
HETATM    6  C   UNK     0     141.226 130.358 155.926  0.00  0.00     0.060 A 
HETATM    7  C   UNK     0     142.608 132.427 154.964  0.00  0.00     0.043 A 
HETATM    8  C   UNK     0     138.618 131.607 154.867  0.00  0.00     0.063 A 
HETATM    9  C   UNK     0     139.883 129.636 156.142  0.00  0.00     0.063 A 
HETATM   10  C   UNK     0     139.999 133.677 153.905  0.00  0.00     0.200 A 
HETATM   11  C   UNK     0     143.912 131.803 155.494  0.00  0.00     0.121 A 
HETATM   12  C   UNK     0     142.530 129.733 156.456  0.00  0.00     0.200 A 
HETATM   13  C   UNK     0     142.647 133.774 154.219  0.00  0.00     0.082 A 
HETATM   14  C   UNK     0     137.314 132.232 154.338  0.00  0.00     0.052 C 
HETATM   15  C   UNK     0     139.845 128.289 156.888  0.00  0.00     0.052 C 
HETATM   16  C   UNK     0     145.255 132.525 155.278  0.00  0.00     0.127 A 
HETATM   17  C   UNK     0     143.989 134.496 154.003  0.00  0.00     0.058 A 
HETATM   18  C   UNK     0     145.293 133.872 154.532  0.00  0.00     0.059 A 
ENDROOT
BRANCH  12  19
HETATM   19  O   UNK     0     142.492 128.386 157.202  0.00  0.00    -0.308 OA
BRANCH  19  20
HETATM   20  C   UNK     0     143.246 128.222 158.534  0.00  0.00     0.183 C 
BRANCH  20  21
HETATM   21  C   UNK     0     144.562 127.422 158.580  0.00  0.00     0.175 C 
BRANCH  21  22
HETATM   22  O   UNK     0     145.709 127.879 159.501  0.00  0.00    -0.349 OA
HETATM   23  C   UNK     0     146.134 127.003 160.695  0.00  0.00     0.174 C 
ENDBRANCH  21  22
ENDBRANCH  20  21
ENDBRANCH  19  20
ENDBRANCH  12  19
BRANCH  16  24
HETATM   24  N   UNK     0     146.559 131.900 155.807  0.00  0.00    -0.116 N 
HETATM   25  O   UNK     0     147.755 131.694 154.859  0.00  0.00    -0.532 OA
HETATM   26  O   UNK     0     146.668 131.480 157.286  0.00  0.00    -0.532 OA
ENDBRANCH  16  24
BRANCH  10  27
HETATM   27  O   UNK     0     138.695 134.301 153.376  0.00  0.00    -0.313 OA
BRANCH  27  28
HETATM   28  C   UNK     0     138.299 135.729 153.797  0.00  0.00     0.124 C 
HETATM   29  C   UNK     0     138.896 136.942 153.059  0.00  0.00     0.033 C 
HETATM   30  C   UNK     0     137.306 135.943 154.954  0.00  0.00     0.033 C 
ENDBRANCH  27  28
ENDBRANCH  10  27
TORSDOF 7
ENDMDL
MODEL 6
REMARK VINA RESULT:      -6.7     37.186     39.415
REMARK  7 active torsions:
REMARK  status: ('A' for Active; 'I' for Inactive)
REMARK    1  A    between atoms: O_1  and  C_16 
REMARK    2  A    between atoms: O_1  and  C_24 
REMARK    3  A    between atoms: O_2  and  C_18 
REMARK    4  A    between atoms: O_2  and  C_26 
REMARK    5  A    between atoms: O_5  and  C_29 
REMARK    6  A    between atoms: N_9  and  C_22 
REMARK    7  A    between atoms: C_26  and  C_29 
ROOT
HETATM    1  O   UNK     0     161.588 150.781 182.551  0.00  0.00    -0.290 OA
HETATM    2  O   UNK     0     160.065 148.415 178.018  0.00  0.00    -0.284 OA
HETATM    3  N   UNK     0     161.936 145.480 182.062  0.00  0.00    -0.254 NA
HETATM    4  C   UNK     0     161.196 148.225 180.877  0.00  0.00     0.014 A 
HETATM    5  C   UNK     0     161.762 148.130 182.306  0.00  0.00     0.060 A 
HETATM    6  C   UNK     0     161.000 146.948 180.040  0.00  0.00     0.060 A 
HETATM    7  C   UNK     0     160.827 149.598 180.285  0.00  0.00     0.043 A 
HETATM    8  C   UNK     0     162.131 146.757 182.898  0.00  0.00     0.063 A 
HETATM    9  C   UNK     0     161.370 145.575 180.632  0.00  0.00     0.063 A 
HETATM   10  C   UNK     0     161.958 149.408 183.143  0.00  0.00     0.200 A 
HETATM   11  C   UNK     0     160.261 149.693 178.856  0.00  0.00     0.121 A 
HETATM   12  C   UNK     0     160.435 147.042 178.611  0.00  0.00     0.200 A 
HETATM   13  C   UNK     0     161.022 150.876 181.122  0.00  0.00     0.082 A 
HETATM   14  C   UNK     0     162.697 146.663 184.328  0.00  0.00     0.052 C 
HETATM   15  C   UNK     0     161.174 144.297 179.795  0.00  0.00     0.052 C 
HETATM   16  C   UNK     0     159.891 151.066 178.263  0.00  0.00     0.127 A 
HETATM   17  C   UNK     0     160.653 152.248 180.529  0.00  0.00     0.058 A 
HETATM   18  C   UNK     0     160.087 152.343 179.101  0.00  0.00     0.059 A 
ENDROOT
BRANCH  12  19
HETATM   19  O   UNK     0     160.238 145.764 177.773  0.00  0.00    -0.308 OA
BRANCH  19  20
HETATM   20  C   UNK     0     158.873 145.471 177.125  0.00  0.00     0.183 C 
BRANCH  20  21
HETATM   21  C   UNK     0     157.638 145.220 178.011  0.00  0.00     0.175 C 
BRANCH  21  22
HETATM   22  O   UNK     0     156.224 145.405 177.431  0.00  0.00    -0.349 OA
HETATM   23  C   UNK     0     155.326 146.548 177.940  0.00  0.00     0.174 C 
ENDBRANCH  21  22
ENDBRANCH  20  21
ENDBRANCH  19  20
ENDBRANCH  12  19
BRANCH  16  24
HETATM   24  N   UNK     0     159.326 151.160 176.834  0.00  0.00    -0.116 N 
HETATM   25  O   UNK     0     157.947 150.556 176.510  0.00  0.00    -0.532 OA
HETATM   26  O   UNK     0     160.139 151.860 175.728  0.00  0.00    -0.532 OA
ENDBRANCH  16  24
BRANCH  10  27
HETATM   27  O   UNK     0     162.523 149.313 184.572  0.00  0.00    -0.313 OA
BRANCH  27  28
HETATM   28  C   UNK     0     161.621 149.627 185.780  0.00  0.00     0.124 C 
HETATM   29  C   UNK     0     160.089 149.613 185.621  0.00  0.00     0.033 C 
HETATM   30  C   UNK     0     162.250 149.955 187.146  0.00  0.00     0.033 C 
ENDBRANCH  27  28
ENDBRANCH  10  27
TORSDOF 7
ENDMDL
MODEL 7
REMARK VINA RESULT:      -6.7     84.447     87.356
REMARK  7 active torsions:
REMARK  status: ('A' for Active; 'I' for Inactive)
REMARK    1  A    between atoms: O_1  and  C_16 
REMARK    2  A    between atoms: O_1  and  C_24 
REMARK    3  A    between atoms: O_2  and  C_18 
REMARK    4  A    between atoms: O_2  and  C_26 
REMARK    5  A    between atoms: O_5  and  C_29 
REMARK    6  A    between atoms: N_9  and  C_22 
REMARK    7  A    between atoms: C_26  and  C_29 
ROOT
HETATM    1  O   UNK     0     188.074 129.232 221.975  0.00  0.00    -0.290 OA
HETATM    2  O   UNK     0     188.212 127.370 216.977  0.00  0.00    -0.284 OA
HETATM    3  N   UNK     0     192.165 130.465 218.781  0.00  0.00    -0.254 NA
HETATM    4  C   UNK     0     189.484 129.023 219.245  0.00  0.00     0.014 A 
HETATM    5  C   UNK     0     190.120 129.848 220.378  0.00  0.00     0.060 A 
HETATM    6  C   UNK     0     190.189 128.918 217.879  0.00  0.00     0.060 A 
HETATM    7  C   UNK     0     188.143 128.301 219.477  0.00  0.00     0.043 A 
HETATM    8  C   UNK     0     191.461 130.570 220.146  0.00  0.00     0.063 A 
HETATM    9  C   UNK     0     191.529 129.639 217.648  0.00  0.00     0.063 A 
HETATM   10  C   UNK     0     189.415 129.953 221.743  0.00  0.00     0.200 A 
HETATM   11  C   UNK     0     187.507 127.475 218.343  0.00  0.00     0.121 A 
HETATM   12  C   UNK     0     189.553 128.092 216.745  0.00  0.00     0.200 A 
HETATM   13  C   UNK     0     187.438 128.406 220.841  0.00  0.00     0.082 A 
HETATM   14  C   UNK     0     192.097 131.396 221.280  0.00  0.00     0.052 C 
HETATM   15  C   UNK     0     192.234 129.534 216.282  0.00  0.00     0.052 C 
HETATM   16  C   UNK     0     186.166 126.754 218.574  0.00  0.00     0.127 A 
HETATM   17  C   UNK     0     186.098 127.684 221.073  0.00  0.00     0.058 A 
HETATM   18  C   UNK     0     185.462 126.859 219.940  0.00  0.00     0.059 A 
ENDROOT
BRANCH  12  19
HETATM   19  O   UNK     0     190.257 127.987 215.380  0.00  0.00    -0.308 OA
BRANCH  19  20
HETATM   20  C   UNK     0     190.496 126.607 214.741  0.00  0.00     0.183 C 
BRANCH  20  21
HETATM   21  C   UNK     0     189.346 125.886 214.013  0.00  0.00     0.175 C 
BRANCH  21  22
HETATM   22  O   UNK     0     188.377 124.988 214.805  0.00  0.00    -0.349 OA
HETATM   23  C   UNK     0     187.262 124.221 214.069  0.00  0.00     0.174 C 
ENDBRANCH  21  22
ENDBRANCH  20  21
ENDBRANCH  19  20
ENDBRANCH  12  19
BRANCH  16  24
HETATM   24  N   UNK     0     185.530 125.928 217.441  0.00  0.00    -0.116 N 
HETATM   25  O   UNK     0     185.232 126.588 216.081  0.00  0.00    -0.532 OA
HETATM   26  O   UNK     0     185.193 124.442 217.666  0.00  0.00    -0.532 OA
ENDBRANCH  16  24
BRANCH  10  27
HETATM   27  O   UNK     0     190.051 130.779 222.876  0.00  0.00    -0.313 OA
BRANCH  27  28
HETATM   28  C   UNK     0     189.207 131.816 223.641  0.00  0.00     0.124 C 
HETATM   29  C   UNK     0     188.334 131.373 224.830  0.00  0.00     0.033 C 
HETATM   30  C   UNK     0     189.236 133.296 223.216  0.00  0.00     0.033 C 
ENDBRANCH  27  28
ENDBRANCH  10  27
TORSDOF 7
ENDMDL
MODEL 8
REMARK VINA RESULT:      -6.6     50.300     52.795
REMARK  7 active torsions:
REMARK  status: ('A' for Active; 'I' for Inactive)
REMARK    1  A    between atoms: O_1  and  C_16 
REMARK    2  A    between atoms: O_1  and  C_24 
REMARK    3  A    between atoms: O_2  and  C_18 
REMARK    4  A    between atoms: O_2  and  C_26 
REMARK    5  A    between atoms: O_5  and  C_29 
REMARK    6  A    between atoms: N_9  and  C_22 
REMARK    7  A    between atoms: C_26  and  C_29 
ROOT
HETATM    1  O   UNK     0     158.065 150.862 192.391  0.00  0.00    -0.290 OA
HETATM    2  O   UNK     0     153.637 150.848 195.367  0.00  0.00    -0.284 OA
HETATM    3  N   UNK     0     158.349 151.976 197.601  0.00  0.00    -0.254 NA
HETATM    4  C   UNK     0     156.684 151.229 195.119  0.00  0.00     0.014 A 
HETATM    5  C   UNK     0     158.207 151.419 194.996  0.00  0.00     0.060 A 
HETATM    6  C   UNK     0     155.993 151.412 196.484  0.00  0.00     0.060 A 
HETATM    7  C   UNK     0     155.852 150.855 193.879  0.00  0.00     0.043 A 
HETATM    8  C   UNK     0     159.039 151.793 196.237  0.00  0.00     0.063 A 
HETATM    9  C   UNK     0     156.825 151.786 197.724  0.00  0.00     0.063 A 
HETATM   10  C   UNK     0     158.898 151.236 193.632  0.00  0.00     0.200 A 
HETATM   11  C   UNK     0     154.328 150.664 194.002  0.00  0.00     0.121 A 
HETATM   12  C   UNK     0     154.470 151.221 196.607  0.00  0.00     0.200 A 
HETATM   13  C   UNK     0     156.542 150.672 192.515  0.00  0.00     0.082 A 
HETATM   14  C   UNK     0     160.562 151.984 196.113  0.00  0.00     0.052 C 
HETATM   15  C   UNK     0     156.134 151.969 199.089  0.00  0.00     0.052 C 
HETATM   16  C   UNK     0     153.496 150.291 192.762  0.00  0.00     0.127 A 
HETATM   17  C   UNK     0     155.710 150.298 191.274  0.00  0.00     0.058 A 
HETATM   18  C   UNK     0     154.187 150.108 191.397  0.00  0.00     0.059 A 
ENDROOT
BRANCH  12  19
HETATM   19  O   UNK     0     153.779 151.404 197.972  0.00  0.00    -0.308 OA
BRANCH  19  20
HETATM   20  C   UNK     0     152.388 150.791 198.219  0.00  0.00     0.183 C 
BRANCH  20  21
HETATM   21  C   UNK     0     152.260 149.306 198.607  0.00  0.00     0.175 C 
BRANCH  21  22
HETATM   22  O   UNK     0     151.905 148.257 197.536  0.00  0.00    -0.349 OA
HETATM   23  C   UNK     0     150.905 148.607 196.418  0.00  0.00     0.174 C 
ENDBRANCH  21  22
ENDBRANCH  20  21
ENDBRANCH  19  20
ENDBRANCH  12  19
BRANCH  16  24
HETATM   24  N   UNK     0     151.973 150.100 192.885  0.00  0.00    -0.116 N 
HETATM   25  O   UNK     0     151.061 151.318 193.125  0.00  0.00    -0.532 OA
HETATM   26  O   UNK     0     151.360 148.692 192.770  0.00  0.00    -0.532 OA
ENDBRANCH  16  24
BRANCH  10  27
HETATM   27  O   UNK     0     160.420 151.427 193.509  0.00  0.00    -0.313 OA
BRANCH  27  28
HETATM   28  C   UNK     0     161.281 150.339 192.839  0.00  0.00     0.124 C 
HETATM   29  C   UNK     0     161.824 150.555 191.413  0.00  0.00     0.033 C 
HETATM   30  C   UNK     0     161.599 149.035 193.594  0.00  0.00     0.033 C 
ENDBRANCH  27  28
ENDBRANCH  10  27
TORSDOF 7
ENDMDL
MODEL 9
REMARK VINA RESULT:      -6.6     21.282     24.957
REMARK  7 active torsions:
REMARK  status: ('A' for Active; 'I' for Inactive)
REMARK    1  A    between atoms: O_1  and  C_16 
REMARK    2  A    between atoms: O_1  and  C_24 
REMARK    3  A    between atoms: O_2  and  C_18 
REMARK    4  A    between atoms: O_2  and  C_26 
REMARK    5  A    between atoms: O_5  and  C_29 
REMARK    6  A    between atoms: N_9  and  C_22 
REMARK    7  A    between atoms: C_26  and  C_29 
ROOT
HETATM    1  O   UNK     0     137.419 152.831 162.033  0.00  0.00    -0.290 OA
HETATM    2  O   UNK     0     133.973 154.152 158.181  0.00  0.00    -0.284 OA
HETATM    3  N   UNK     0     132.328 153.862 163.248  0.00  0.00    -0.254 NA
HETATM    4  C   UNK     0     134.573 153.615 161.154  0.00  0.00     0.014 A 
HETATM    5  C   UNK     0     134.873 153.347 162.640  0.00  0.00     0.060 A 
HETATM    6  C   UNK     0     133.150 154.007 160.714  0.00  0.00     0.060 A 
HETATM    7  C   UNK     0     135.696 153.491 160.107  0.00  0.00     0.043 A 
HETATM    8  C   UNK     0     133.750 153.470 163.687  0.00  0.00     0.063 A 
HETATM    9  C   UNK     0     132.028 154.131 161.761  0.00  0.00     0.063 A 
HETATM   10  C   UNK     0     136.296 152.955 163.080  0.00  0.00     0.200 A 
HETATM   11  C   UNK     0     135.396 153.760 158.621  0.00  0.00     0.121 A 
HETATM   12  C   UNK     0     132.850 154.275 159.227  0.00  0.00     0.200 A 
HETATM   13  C   UNK     0     137.119 153.099 160.546  0.00  0.00     0.082 A 
HETATM   14  C   UNK     0     134.051 153.202 165.173  0.00  0.00     0.052 C 
HETATM   15  C   UNK     0     130.604 154.523 161.321  0.00  0.00     0.052 C 
HETATM   16  C   UNK     0     136.519 153.636 157.574  0.00  0.00     0.127 A 
HETATM   17  C   UNK     0     138.241 152.976 159.500  0.00  0.00     0.058 A 
HETATM   18  C   UNK     0     137.942 153.244 158.014  0.00  0.00     0.059 A 
ENDROOT
BRANCH  12  19
HETATM   19  O   UNK     0     131.427 154.668 158.787  0.00  0.00    -0.308 OA
BRANCH  19  20
HETATM   20  C   UNK     0     130.653 153.775 157.800  0.00  0.00     0.183 C 
BRANCH  20  21
HETATM   21  C   UNK     0     131.118 153.665 156.336  0.00  0.00     0.175 C 
BRANCH  21  22
HETATM   22  O   UNK     0     130.518 154.595 155.264  0.00  0.00    -0.349 OA
HETATM   23  C   UNK     0     128.991 154.773 155.167  0.00  0.00     0.174 C 
ENDBRANCH  21  22
ENDBRANCH  20  21
ENDBRANCH  19  20
ENDBRANCH  12  19
BRANCH  16  24
HETATM   24  N   UNK     0     136.218 153.904 156.087  0.00  0.00    -0.116 N 
HETATM   25  O   UNK     0     135.727 152.759 155.182  0.00  0.00    -0.532 OA
HETATM   26  O   UNK     0     136.409 155.318 155.506  0.00  0.00    -0.532 OA
ENDBRANCH  16  24
BRANCH  10  27
HETATM   27  O   UNK     0     136.596 152.686 164.566  0.00  0.00    -0.313 OA
BRANCH  27  28
HETATM   28  C   UNK     0     138.050 152.698 165.072  0.00  0.00     0.124 C 
HETATM   29  C   UNK     0     138.665 154.000 165.619  0.00  0.00     0.033 C 
HETATM   30  C   UNK     0     138.890 151.408 165.032  0.00  0.00     0.033 C 
ENDBRANCH  27  28
ENDBRANCH  10  27
TORSDOF 7
ENDMDL
MODEL 10
REMARK VINA RESULT:      -6.5     75.968     77.989
REMARK  7 active torsions:
REMARK  status: ('A' for Active; 'I' for Inactive)
REMARK    1  A    between atoms: O_1  and  C_16 
REMARK    2  A    between atoms: O_1  and  C_24 
REMARK    3  A    between atoms: O_2  and  C_18 
REMARK    4  A    between atoms: O_2  and  C_26 
REMARK    5  A    between atoms: O_5  and  C_29 
REMARK    6  A    between atoms: N_9  and  C_22 
REMARK    7  A    between atoms: C_26  and  C_29 
ROOT
HETATM    1  O   UNK     0     192.590 117.312 202.361  0.00  0.00    -0.290 OA
HETATM    2  O   UNK     0     191.234 113.630 198.746  0.00  0.00    -0.284 OA
HETATM    3  N   UNK     0     195.253 116.995 197.750  0.00  0.00    -0.254 NA
HETATM    4  C   UNK     0     193.026 115.979 199.619  0.00  0.00     0.014 A 
HETATM    5  C   UNK     0     193.921 117.153 200.055  0.00  0.00     0.060 A 
HETATM    6  C   UNK     0     193.243 115.312 198.248  0.00  0.00     0.060 A 
HETATM    7  C   UNK     0     191.912 115.471 200.554  0.00  0.00     0.043 A 
HETATM    8  C   UNK     0     195.035 117.661 199.120  0.00  0.00     0.063 A 
HETATM    9  C   UNK     0     194.357 115.820 197.313  0.00  0.00     0.063 A 
HETATM   10  C   UNK     0     193.704 117.820 201.427  0.00  0.00     0.200 A 
HETATM   11  C   UNK     0     191.016 114.297 200.118  0.00  0.00     0.121 A 
HETATM   12  C   UNK     0     192.348 114.138 197.811  0.00  0.00     0.200 A 
HETATM   13  C   UNK     0     191.694 116.137 201.925  0.00  0.00     0.082 A 
HETATM   14  C   UNK     0     195.931 118.835 199.557  0.00  0.00     0.052 C 
HETATM   15  C   UNK     0     194.575 115.154 195.942  0.00  0.00     0.052 C 
HETATM   16  C   UNK     0     189.903 113.789 201.052  0.00  0.00     0.127 A 
HETATM   17  C   UNK     0     190.581 115.629 202.860  0.00  0.00     0.058 A 
HETATM   18  C   UNK     0     189.685 114.456 202.424  0.00  0.00     0.059 A 
ENDROOT
BRANCH  12  19
HETATM   19  O   UNK     0     192.565 113.471 196.440  0.00  0.00    -0.308 OA
BRANCH  19  20
HETATM   20  C   UNK     0     192.870 111.965 196.356  0.00  0.00     0.183 C 
BRANCH  20  21
HETATM   21  C   UNK     0     194.298 111.452 196.621  0.00  0.00     0.175 C 
BRANCH  21  22
HETATM   22  O   UNK     0     195.170 112.123 197.699  0.00  0.00    -0.349 OA
HETATM   23  C   UNK     0     194.961 111.777 199.185  0.00  0.00     0.174 C 
ENDBRANCH  21  22
ENDBRANCH  20  21
ENDBRANCH  19  20
ENDBRANCH  12  19
BRANCH  16  24
HETATM   24  N   UNK     0     189.007 112.615 200.616  0.00  0.00    -0.116 N 
HETATM   25  O   UNK     0     187.546 112.873 200.202  0.00  0.00    -0.532 OA
HETATM   26  O   UNK     0     189.572 111.182 200.593  0.00  0.00    -0.532 OA
ENDBRANCH  16  24
BRANCH  10  27
HETATM   27  O   UNK     0     194.599 118.993 201.862  0.00  0.00    -0.313 OA
BRANCH  27  28
HETATM   28  C   UNK     0     195.427 118.891 203.157  0.00  0.00     0.124 C 
HETATM   29  C   UNK     0     196.915 118.498 203.091  0.00  0.00     0.033 C 
HETATM   30  C   UNK     0     194.767 119.181 204.518  0.00  0.00     0.033 C 
ENDBRANCH  27  28
ENDBRANCH  10  27
TORSDOF 7
ENDMDL
