MODEL 1
REMARK VINA RESULT:      -8.6      0.000      0.000
REMARK  4 active torsions:
REMARK  status: ('A' for Active; 'I' for Inactive)
REMARK    1  A    between atoms: O_1  and  C_15 
REMARK    2  A    between atoms: O_1  and  C_22 
REMARK    3  A    between atoms: O_2  and  C_19 
REMARK    4  A    between atoms: C_21  and  C_22 
ROOT
HETATM    1  O   UNK     0     149.199 149.917 143.956  0.00  0.00    -0.290 OA
HETATM    2  O   UNK     0     148.085 145.346 141.439  0.00  0.00     0.000 OA
HETATM    3  O   UNK     0     145.457 146.564 140.391  0.00  0.00    -0.223 OA
HETATM    4  O   UNK     0     147.150 144.509 140.548  0.00  0.00     0.000 OA
HETATM    5  N   UNK     0     152.584 145.806 144.270  0.00  0.00    -0.254 NA
HETATM    6  N   UNK     0     146.771 145.955 140.915  0.00  0.00     0.000 N 
HETATM    7  C   UNK     0     149.956 147.023 143.222  0.00  0.00     0.006 A 
HETATM    8  C   UNK     0     150.891 147.862 144.113  0.00  0.00     0.060 A 
HETATM    9  C   UNK     0     150.334 145.576 142.855  0.00  0.00     0.038 A 
HETATM   10  C   UNK     0     148.642 147.632 142.698  0.00  0.00    -0.001 A 
HETATM   11  C   UNK     0     152.205 147.253 144.637  0.00  0.00     0.063 A 
HETATM   12  C   UNK     0     151.648 144.967 143.379  0.00  0.00     0.061 A 
HETATM   13  C   UNK     0     150.512 149.308 144.480  0.00  0.00     0.200 A 
HETATM   14  C   UNK     0     147.707 146.794 141.806  0.00  0.00     0.061 A 
HETATM   15  C   UNK     0     148.263 149.079 143.065  0.00  0.00     0.076 A 
HETATM   16  C   UNK     0     153.140 148.091 145.528  0.00  0.00     0.052 C 
HETATM   17  C   UNK     0     149.399 144.738 141.963  0.00  0.00     0.117 A 
HETATM   18  C   UNK     0     152.027 143.520 143.012  0.00  0.00     0.052 C 
HETATM   19  C   UNK     0     146.393 147.402 141.282  0.00  0.00     0.157 A 
HETATM   20  C   UNK     0     146.950 149.688 142.540  0.00  0.00     0.054 A 
HETATM   21  C   UNK     0     146.014 148.850 141.649  0.00  0.00     0.040 A 
ENDROOT
BRANCH  13  22
HETATM   22  O   UNK     0     151.448 150.147 145.371  0.00  0.00    -0.311 OA
BRANCH  22  23
HETATM   23  C   UNK     0     151.882 151.554 144.922  0.00  0.00     0.151 C 
BRANCH  23  24
HETATM   24  C   UNK     0     153.223 151.749 144.189  0.00  0.00     0.030 C 
HETATM   25  C   UNK     0     153.534 150.931 142.921  0.00  0.00     0.003 C 
HETATM   26  C   UNK     0     154.252 152.761 144.725  0.00  0.00     0.003 C 
ENDBRANCH  23  24
ENDBRANCH  22  23
ENDBRANCH  13  22
BRANCH  17  27
HETATM   27  O   UNK     0     149.778 143.291 141.597  0.00  0.00    -0.326 OA
HETATM   28  C   UNK     0     148.925 142.117 142.115  0.00  0.00     0.181 C 
ENDBRANCH  17  27
TORSDOF 4
ENDMDL
MODEL 2
REMARK VINA RESULT:      -8.2      3.097      4.266
REMARK  4 active torsions:
REMARK  status: ('A' for Active; 'I' for Inactive)
REMARK    1  A    between atoms: O_1  and  C_15 
REMARK    2  A    between atoms: O_1  and  C_22 
REMARK    3  A    between atoms: O_2  and  C_19 
REMARK    4  A    between atoms: C_21  and  C_22 
ROOT
HETATM    1  O   UNK     0     147.683 151.157 144.995  0.00  0.00    -0.290 OA
HETATM    2  O   UNK     0     150.267 147.243 142.452  0.00  0.00     0.000 OA
HETATM    3  O   UNK     0     147.814 146.799 140.643  0.00  0.00    -0.223 OA
HETATM    4  O   UNK     0     150.299 146.154 141.364  0.00  0.00     0.000 OA
HETATM    5  N   UNK     0     152.655 149.867 146.437  0.00  0.00    -0.254 NA
HETATM    6  N   UNK     0     149.040 147.021 141.547  0.00  0.00     0.000 N 
HETATM    7  C   UNK     0     150.201 149.422 144.628  0.00  0.00     0.006 A 
HETATM    8  C   UNK     0     150.169 150.512 145.716  0.00  0.00     0.060 A 
HETATM    9  C   UNK     0     151.461 148.555 144.444  0.00  0.00     0.038 A 
HETATM   10  C   UNK     0     148.975 149.200 143.724  0.00  0.00    -0.001 A 
HETATM   11  C   UNK     0     151.395 150.734 146.620  0.00  0.00     0.063 A 
HETATM   12  C   UNK     0     152.687 148.777 145.349  0.00  0.00     0.061 A 
HETATM   13  C   UNK     0     148.910 151.379 145.899  0.00  0.00     0.200 A 
HETATM   14  C   UNK     0     149.008 148.111 142.635  0.00  0.00     0.061 A 
HETATM   15  C   UNK     0     147.716 150.068 143.907  0.00  0.00     0.076 A 
HETATM   16  C   UNK     0     151.363 151.823 147.708  0.00  0.00     0.052 C 
HETATM   17  C   UNK     0     151.494 147.465 143.356  0.00  0.00     0.117 A 
HETATM   18  C   UNK     0     153.947 147.909 145.165  0.00  0.00     0.052 C 
HETATM   19  C   UNK     0     147.781 147.888 141.731  0.00  0.00     0.157 A 
HETATM   20  C   UNK     0     146.489 149.846 143.003  0.00  0.00     0.054 A 
HETATM   21  C   UNK     0     146.522 148.756 141.915  0.00  0.00     0.040 A 
ENDROOT
BRANCH  13  22
HETATM   22  O   UNK     0     148.877 152.469 146.987  0.00  0.00    -0.311 OA
BRANCH  22  23
HETATM   23  C   UNK     0     148.515 153.918 146.614  0.00  0.00     0.151 C 
BRANCH  23  24
HETATM   24  C   UNK     0     147.298 154.600 147.268  0.00  0.00     0.030 C 
HETATM   25  C   UNK     0     147.122 156.126 147.163  0.00  0.00     0.003 C 
HETATM   26  C   UNK     0     146.258 153.756 148.028  0.00  0.00     0.003 C 
ENDBRANCH  23  24
ENDBRANCH  22  23
ENDBRANCH  13  22
BRANCH  17  27
HETATM   27  O   UNK     0     152.752 146.598 143.173  0.00  0.00    -0.326 OA
HETATM   28  C   UNK     0     152.721 145.105 143.549  0.00  0.00     0.181 C 
ENDBRANCH  17  27
TORSDOF 4
ENDMDL
MODEL 3
REMARK VINA RESULT:      -8.1      1.624      4.264
REMARK  4 active torsions:
REMARK  status: ('A' for Active; 'I' for Inactive)
REMARK    1  A    between atoms: O_1  and  C_15 
REMARK    2  A    between atoms: O_1  and  C_22 
REMARK    3  A    between atoms: O_2  and  C_19 
REMARK    4  A    between atoms: C_21  and  C_22 
ROOT
HETATM    1  O   UNK     0     152.319 147.238 144.745  0.00  0.00    -0.290 OA
HETATM    2  O   UNK     0     148.375 145.421 141.644  0.00  0.00     0.000 OA
HETATM    3  O   UNK     0     149.862 142.743 141.322  0.00  0.00    -0.223 OA
HETATM    4  O   UNK     0     147.761 144.298 140.789  0.00  0.00     0.000 OA
HETATM    5  N   UNK     0     148.117 150.347 143.678  0.00  0.00    -0.254 NA
HETATM    6  N   UNK     0     149.118 144.082 141.483  0.00  0.00     0.000 N 
HETATM    7  C   UNK     0     149.604 147.669 143.356  0.00  0.00     0.006 A 
HETATM    8  C   UNK     0     150.218 148.792 144.212  0.00  0.00     0.060 A 
HETATM    9  C   UNK     0     148.246 147.884 142.661  0.00  0.00     0.038 A 
HETATM   10  C   UNK     0     150.347 146.330 143.195  0.00  0.00    -0.001 A 
HETATM   11  C   UNK     0     149.475 150.131 144.373  0.00  0.00     0.063 A 
HETATM   12  C   UNK     0     147.503 149.223 142.823  0.00  0.00     0.061 A 
HETATM   13  C   UNK     0     151.575 148.577 144.906  0.00  0.00     0.200 A 
HETATM   14  C   UNK     0     149.733 145.206 142.339  0.00  0.00     0.061 A 
HETATM   15  C   UNK     0     151.705 146.114 143.889  0.00  0.00     0.076 A 
HETATM   16  C   UNK     0     150.088 151.255 145.228  0.00  0.00     0.052 C 
HETATM   17  C   UNK     0     147.632 146.760 141.806  0.00  0.00     0.117 A 
HETATM   18  C   UNK     0     146.145 149.438 142.128  0.00  0.00     0.052 C 
HETATM   19  C   UNK     0     150.476 143.867 142.178  0.00  0.00     0.157 A 
HETATM   20  C   UNK     0     152.448 144.775 143.728  0.00  0.00     0.054 A 
HETATM   21  C   UNK     0     151.834 143.652 142.872  0.00  0.00     0.040 A 
ENDROOT
BRANCH  13  22
HETATM   22  O   UNK     0     152.190 149.700 145.762  0.00  0.00    -0.311 OA
BRANCH  22  23
HETATM   23  C   UNK     0     153.600 150.228 145.441  0.00  0.00     0.151 C 
BRANCH  23  24
HETATM   24  C   UNK     0     153.792 151.299 144.350  0.00  0.00     0.030 C 
HETATM   25  C   UNK     0     153.582 150.934 142.868  0.00  0.00     0.003 C 
HETATM   26  C   UNK     0     154.193 152.733 144.741  0.00  0.00     0.003 C 
ENDBRANCH  23  24
ENDBRANCH  22  23
ENDBRANCH  13  22
BRANCH  17  27
HETATM   27  O   UNK     0     146.275 146.976 141.112  0.00  0.00    -0.326 OA
HETATM   28  C   UNK     0     145.119 145.987 141.356  0.00  0.00     0.181 C 
ENDBRANCH  17  27
TORSDOF 4
ENDMDL
MODEL 4
REMARK VINA RESULT:      -8.1      2.406      7.144
REMARK  4 active torsions:
REMARK  status: ('A' for Active; 'I' for Inactive)
REMARK    1  A    between atoms: O_1  and  C_15 
REMARK    2  A    between atoms: O_1  and  C_22 
REMARK    3  A    between atoms: O_2  and  C_19 
REMARK    4  A    between atoms: C_21  and  C_22 
ROOT
HETATM    1  O   UNK     0     152.676 144.583 143.668  0.00  0.00    -0.290 OA
HETATM    2  O   UNK     0     149.142 148.512 144.403  0.00  0.00     0.000 OA
HETATM    3  O   UNK     0     151.236 150.094 146.014  0.00  0.00    -0.223 OA
HETATM    4  O   UNK     0     148.783 149.889 144.989  0.00  0.00     0.000 OA
HETATM    5  N   UNK     0     147.768 144.174 141.618  0.00  0.00    -0.254 NA
HETATM    6  N   UNK     0     150.189 149.303 145.208  0.00  0.00     0.000 N 
HETATM    7  C   UNK     0     149.862 145.756 143.230  0.00  0.00     0.006 A 
HETATM    8  C   UNK     0     150.222 144.378 142.643  0.00  0.00     0.060 A 
HETATM    9  C   UNK     0     148.455 146.343 143.010  0.00  0.00     0.038 A 
HETATM   10  C   UNK     0     150.909 146.547 144.035  0.00  0.00    -0.001 A 
HETATM   11  C   UNK     0     149.175 143.587 141.837  0.00  0.00     0.063 A 
HETATM   12  C   UNK     0     147.408 145.552 142.205  0.00  0.00     0.061 A 
HETATM   13  C   UNK     0     151.629 143.792 142.862  0.00  0.00     0.200 A 
HETATM   14  C   UNK     0     150.549 147.925 144.622  0.00  0.00     0.061 A 
HETATM   15  C   UNK     0     152.316 145.960 144.254  0.00  0.00     0.076 A 
HETATM   16  C   UNK     0     149.534 142.210 141.251  0.00  0.00     0.052 C 
HETATM   17  C   UNK     0     148.095 147.721 143.597  0.00  0.00     0.117 A 
HETATM   18  C   UNK     0     146.001 146.138 141.986  0.00  0.00     0.052 C 
HETATM   19  C   UNK     0     151.596 148.716 145.427  0.00  0.00     0.157 A 
HETATM   20  C   UNK     0     153.364 146.751 145.060  0.00  0.00     0.054 A 
HETATM   21  C   UNK     0     153.004 148.129 145.647  0.00  0.00     0.040 A 
ENDROOT
BRANCH  13  22
HETATM   22  O   UNK     0     151.989 142.414 142.276  0.00  0.00    -0.311 OA
BRANCH  22  23
HETATM   23  C   UNK     0     152.939 141.476 143.042  0.00  0.00     0.151 C 
BRANCH  23  24
HETATM   24  C   UNK     0     152.364 140.347 143.919  0.00  0.00     0.030 C 
HETATM   25  C   UNK     0     153.136 139.870 145.164  0.00  0.00     0.003 C 
HETATM   26  C   UNK     0     151.018 139.696 143.552  0.00  0.00     0.003 C 
ENDBRANCH  23  24
ENDBRANCH  22  23
ENDBRANCH  13  22
BRANCH  17  27
HETATM   27  O   UNK     0     146.689 148.307 143.378  0.00  0.00    -0.326 OA
HETATM   28  C   UNK     0     146.512 149.599 142.558  0.00  0.00     0.181 C 
ENDBRANCH  17  27
TORSDOF 4
ENDMDL
MODEL 5
REMARK VINA RESULT:      -8.1      1.887      4.667
REMARK  4 active torsions:
REMARK  status: ('A' for Active; 'I' for Inactive)
REMARK    1  A    between atoms: O_1  and  C_15 
REMARK    2  A    between atoms: O_1  and  C_22 
REMARK    3  A    between atoms: O_2  and  C_19 
REMARK    4  A    between atoms: C_21  and  C_22 
ROOT
HETATM    1  O   UNK     0     151.311 147.160 144.094  0.00  0.00    -0.290 OA
HETATM    2  O   UNK     0     148.702 143.240 141.587  0.00  0.00     0.000 OA
HETATM    3  O   UNK     0     151.161 141.411 141.888  0.00  0.00    -0.223 OA
HETATM    4  O   UNK     0     148.665 141.804 141.036  0.00  0.00     0.000 OA
HETATM    5  N   UNK     0     146.318 147.945 142.390  0.00  0.00    -0.254 NA
HETATM    6  N   UNK     0     149.931 142.326 141.738  0.00  0.00     0.000 N 
HETATM    7  C   UNK     0     148.777 146.116 142.691  0.00  0.00     0.006 A 
HETATM    8  C   UNK     0     148.815 147.553 143.243  0.00  0.00     0.060 A 
HETATM    9  C   UNK     0     147.510 145.593 141.989  0.00  0.00     0.038 A 
HETATM   10  C   UNK     0     150.007 145.201 142.841  0.00  0.00    -0.001 A 
HETATM   11  C   UNK     0     147.585 148.468 143.092  0.00  0.00     0.063 A 
HETATM   12  C   UNK     0     146.280 146.508 141.839  0.00  0.00     0.061 A 
HETATM   13  C   UNK     0     150.082 148.075 143.944  0.00  0.00     0.200 A 
HETATM   14  C   UNK     0     149.969 143.763 142.289  0.00  0.00     0.061 A 
HETATM   15  C   UNK     0     151.274 145.724 143.543  0.00  0.00     0.076 A 
HETATM   16  C   UNK     0     147.622 149.905 143.644  0.00  0.00     0.052 C 
HETATM   17  C   UNK     0     147.472 144.155 141.437  0.00  0.00     0.117 A 
HETATM   18  C   UNK     0     145.013 145.985 141.136  0.00  0.00     0.052 C 
HETATM   19  C   UNK     0     151.199 142.849 142.440  0.00  0.00     0.157 A 
HETATM   20  C   UNK     0     152.504 144.809 143.693  0.00  0.00     0.054 A 
HETATM   21  C   UNK     0     152.466 143.371 143.142  0.00  0.00     0.040 A 
ENDROOT
BRANCH  13  22
HETATM   22  O   UNK     0     150.119 149.513 144.496  0.00  0.00    -0.311 OA
BRANCH  22  23
HETATM   23  C   UNK     0     151.443 150.298 144.507  0.00  0.00     0.151 C 
BRANCH  23  24
HETATM   24  C   UNK     0     152.049 150.805 143.185  0.00  0.00     0.030 C 
HETATM   25  C   UNK     0     153.565 151.059 143.079  0.00  0.00     0.003 C 
HETATM   26  C   UNK     0     151.139 151.057 141.968  0.00  0.00     0.003 C 
ENDBRANCH  23  24
ENDBRANCH  22  23
ENDBRANCH  13  22
BRANCH  17  27
HETATM   27  O   UNK     0     146.205 143.633 140.735  0.00  0.00    -0.326 OA
HETATM   28  C   UNK     0     145.389 142.491 141.370  0.00  0.00     0.181 C 
ENDBRANCH  17  27
TORSDOF 4
ENDMDL
MODEL 6
REMARK VINA RESULT:      -8.0      9.460     13.439
REMARK  4 active torsions:
REMARK  status: ('A' for Active; 'I' for Inactive)
REMARK    1  A    between atoms: O_1  and  C_15 
REMARK    2  A    between atoms: O_1  and  C_22 
REMARK    3  A    between atoms: O_2  and  C_19 
REMARK    4  A    between atoms: C_21  and  C_22 
ROOT
HETATM    1  O   UNK     0     149.321 153.754 150.652  0.00  0.00    -0.290 OA
HETATM    2  O   UNK     0     154.018 156.109 151.580  0.00  0.00     0.000 OA
HETATM    3  O   UNK     0     155.351 153.345 151.844  0.00  0.00    -0.223 OA
HETATM    4  O   UNK     0     155.525 156.006 151.877  0.00  0.00     0.000 OA
HETATM    5  N   UNK     0     149.669 159.077 150.719  0.00  0.00    -0.254 NA
HETATM    6  N   UNK     0     154.685 154.727 151.712  0.00  0.00     0.000 N 
HETATM    7  C   UNK     0     151.002 156.313 150.984  0.00  0.00     0.006 A 
HETATM    8  C   UNK     0     149.495 156.415 150.686  0.00  0.00     0.060 A 
HETATM    9  C   UNK     0     151.843 157.593 151.149  0.00  0.00     0.038 A 
HETATM   10  C   UNK     0     151.669 154.931 151.116  0.00  0.00    -0.001 A 
HETATM   11  C   UNK     0     148.828 157.797 150.553  0.00  0.00     0.063 A 
HETATM   12  C   UNK     0     151.176 158.975 151.017  0.00  0.00     0.061 A 
HETATM   13  C   UNK     0     148.655 155.136 150.520  0.00  0.00     0.200 A 
HETATM   14  C   UNK     0     153.177 154.829 151.414  0.00  0.00     0.061 A 
HETATM   15  C   UNK     0     150.828 153.651 150.950  0.00  0.00     0.076 A 
HETATM   16  C   UNK     0     147.321 157.899 150.255  0.00  0.00     0.052 C 
HETATM   17  C   UNK     0     153.351 157.491 151.447  0.00  0.00     0.117 A 
HETATM   18  C   UNK     0     152.017 160.254 151.183  0.00  0.00     0.052 C 
HETATM   19  C   UNK     0     153.844 153.447 151.546  0.00  0.00     0.157 A 
HETATM   20  C   UNK     0     151.495 152.269 151.082  0.00  0.00     0.054 A 
HETATM   21  C   UNK     0     153.003 152.167 151.380  0.00  0.00     0.040 A 
ENDROOT
BRANCH  13  22
HETATM   22  O   UNK     0     147.147 155.238 150.222  0.00  0.00    -0.311 OA
BRANCH  22  23
HETATM   23  C   UNK     0     146.547 154.482 149.023  0.00  0.00     0.151 C 
BRANCH  23  24
HETATM   24  C   UNK     0     147.177 154.630 147.625  0.00  0.00     0.030 C 
HETATM   25  C   UNK     0     147.607 153.379 146.837  0.00  0.00     0.003 C 
HETATM   26  C   UNK     0     147.377 156.030 147.016  0.00  0.00     0.003 C 
ENDBRANCH  23  24
ENDBRANCH  22  23
ENDBRANCH  13  22
BRANCH  17  27
HETATM   27  O   UNK     0     154.191 158.770 151.613  0.00  0.00    -0.326 OA
HETATM   28  C   UNK     0     155.379 159.038 150.671  0.00  0.00     0.181 C 
ENDBRANCH  17  27
TORSDOF 4
ENDMDL
MODEL 7
REMARK VINA RESULT:      -7.7      2.305      6.511
REMARK  4 active torsions:
REMARK  status: ('A' for Active; 'I' for Inactive)
REMARK    1  A    between atoms: O_1  and  C_15 
REMARK    2  A    between atoms: O_1  and  C_22 
REMARK    3  A    between atoms: O_2  and  C_19 
REMARK    4  A    between atoms: C_21  and  C_22 
ROOT
HETATM    1  O   UNK     0     146.474 146.120 141.603  0.00  0.00    -0.290 OA
HETATM    2  O   UNK     0     150.734 148.526 143.729  0.00  0.00     0.000 OA
HETATM    3  O   UNK     0     149.186 151.187 143.819  0.00  0.00    -0.223 OA
HETATM    4  O   UNK     0     151.411 149.793 144.283  0.00  0.00     0.000 OA
HETATM    5  N   UNK     0     150.925 143.331 142.531  0.00  0.00    -0.254 NA
HETATM    6  N   UNK     0     149.960 149.857 143.774  0.00  0.00     0.000 N 
HETATM    7  C   UNK     0     149.377 145.992 142.621  0.00  0.00     0.006 A 
HETATM    8  C   UNK     0     148.699 144.725 142.067  0.00  0.00     0.060 A 
HETATM    9  C   UNK     0     150.829 145.929 143.130  0.00  0.00     0.038 A 
HETATM   10  C   UNK     0     148.603 147.323 142.666  0.00  0.00    -0.001 A 
HETATM   11  C   UNK     0     149.473 143.395 142.022  0.00  0.00     0.063 A 
HETATM   12  C   UNK     0     151.603 144.598 143.085  0.00  0.00     0.061 A 
HETATM   13  C   UNK     0     147.248 144.789 141.558  0.00  0.00     0.200 A 
HETATM   14  C   UNK     0     149.282 148.590 143.220  0.00  0.00     0.061 A 
HETATM   15  C   UNK     0     147.151 147.387 142.156  0.00  0.00     0.076 A 
HETATM   16  C   UNK     0     148.795 142.128 141.468  0.00  0.00     0.052 C 
HETATM   17  C   UNK     0     151.508 147.195 143.684  0.00  0.00     0.117 A 
HETATM   18  C   UNK     0     153.056 144.534 143.595  0.00  0.00     0.052 C 
HETATM   19  C   UNK     0     148.508 149.920 143.265  0.00  0.00     0.157 A 
HETATM   20  C   UNK     0     146.377 148.717 142.201  0.00  0.00     0.054 A 
HETATM   21  C   UNK     0     147.055 149.984 142.756  0.00  0.00     0.040 A 
ENDROOT
BRANCH  13  22
HETATM   22  O   UNK     0     146.569 143.523 141.003  0.00  0.00    -0.311 OA
BRANCH  22  23
HETATM   23  C   UNK     0     145.241 143.033 141.609  0.00  0.00     0.151 C 
BRANCH  23  24
HETATM   24  C   UNK     0     144.191 144.053 142.086  0.00  0.00     0.030 C 
HETATM   25  C   UNK     0     143.339 144.821 141.058  0.00  0.00     0.003 C 
HETATM   26  C   UNK     0     143.991 144.305 143.593  0.00  0.00     0.003 C 
ENDBRANCH  23  24
ENDBRANCH  22  23
ENDBRANCH  13  22
BRANCH  17  27
HETATM   27  O   UNK     0     152.959 147.131 144.193  0.00  0.00    -0.326 OA
HETATM   28  C   UNK     0     154.074 147.878 143.437  0.00  0.00     0.181 C 
ENDBRANCH  17  27
TORSDOF 4
ENDMDL
MODEL 8
REMARK VINA RESULT:      -7.7      1.895      6.261
REMARK  4 active torsions:
REMARK  status: ('A' for Active; 'I' for Inactive)
REMARK    1  A    between atoms: O_1  and  C_15 
REMARK    2  A    between atoms: O_1  and  C_22 
REMARK    3  A    between atoms: O_2  and  C_19 
REMARK    4  A    between atoms: C_21  and  C_22 
ROOT
HETATM    1  O   UNK     0     148.348 143.967 141.604  0.00  0.00    -0.290 OA
HETATM    2  O   UNK     0     148.648 149.110 142.991  0.00  0.00     0.000 OA
HETATM    3  O   UNK     0     145.850 149.595 141.797  0.00  0.00    -0.223 OA
HETATM    4  O   UNK     0     148.023 150.516 143.039  0.00  0.00     0.000 OA
HETATM    5  N   UNK     0     152.693 145.810 144.089  0.00  0.00    -0.254 NA
HETATM    6  N   UNK     0     147.249 149.353 142.394  0.00  0.00     0.000 N 
HETATM    7  C   UNK     0     149.896 146.295 142.895  0.00  0.00     0.006 A 
HETATM    8  C   UNK     0     150.521 144.888 142.846  0.00  0.00     0.060 A 
HETATM    9  C   UNK     0     150.671 147.460 143.540  0.00  0.00     0.038 A 
HETATM   10  C   UNK     0     148.498 146.538 142.297  0.00  0.00    -0.001 A 
HETATM   11  C   UNK     0     151.919 144.646 143.443  0.00  0.00     0.063 A 
HETATM   12  C   UNK     0     152.069 147.217 144.137  0.00  0.00     0.061 A 
HETATM   13  C   UNK     0     149.746 143.725 142.201  0.00  0.00     0.200 A 
HETATM   14  C   UNK     0     147.873 147.945 142.346  0.00  0.00     0.061 A 
HETATM   15  C   UNK     0     147.723 145.373 141.652  0.00  0.00     0.076 A 
HETATM   16  C   UNK     0     152.544 143.239 143.395  0.00  0.00     0.052 C 
HETATM   17  C   UNK     0     150.046 148.867 143.588  0.00  0.00     0.117 A 
HETATM   18  C   UNK     0     152.844 148.382 144.783  0.00  0.00     0.052 C 
HETATM   19  C   UNK     0     146.475 148.188 141.749  0.00  0.00     0.157 A 
HETATM   20  C   UNK     0     146.325 145.616 141.055  0.00  0.00     0.054 A 
HETATM   21  C   UNK     0     145.700 147.023 141.103  0.00  0.00     0.040 A 
ENDROOT
BRANCH  13  22
HETATM   22  O   UNK     0     150.371 142.317 142.153  0.00  0.00    -0.311 OA
BRANCH  22  23
HETATM   23  C   UNK     0     150.858 141.737 140.813  0.00  0.00     0.151 C 
BRANCH  23  24
HETATM   24  C   UNK     0     151.692 140.443 140.792  0.00  0.00     0.030 C 
HETATM   25  C   UNK     0     151.089 139.146 140.219  0.00  0.00     0.003 C 
HETATM   26  C   UNK     0     153.130 140.444 141.344  0.00  0.00     0.003 C 
ENDBRANCH  23  24
ENDBRANCH  22  23
ENDBRANCH  13  22
BRANCH  17  27
HETATM   27  O   UNK     0     150.821 150.031 144.233  0.00  0.00    -0.326 OA
HETATM   28  C   UNK     0     150.304 150.671 145.536  0.00  0.00     0.181 C 
ENDBRANCH  17  27
TORSDOF 4
ENDMDL
MODEL 9
REMARK VINA RESULT:      -7.5     18.784     21.893
REMARK  4 active torsions:
REMARK  status: ('A' for Active; 'I' for Inactive)
REMARK    1  A    between atoms: O_1  and  C_15 
REMARK    2  A    between atoms: O_1  and  C_22 
REMARK    3  A    between atoms: O_2  and  C_19 
REMARK    4  A    between atoms: C_21  and  C_22 
ROOT
HETATM    1  O   UNK     0     141.353 134.250 153.662  0.00  0.00    -0.290 OA
HETATM    2  O   UNK     0     144.373 130.764 156.344  0.00  0.00     0.000 OA
HETATM    3  O   UNK     0     146.855 132.511 155.821  0.00  0.00    -0.223 OA
HETATM    4  O   UNK     0     145.748 130.329 156.883  0.00  0.00     0.000 OA
HETATM    5  N   UNK     0     139.140 129.886 155.788  0.00  0.00    -0.254 NA
HETATM    6  N   UNK     0     145.614 131.637 156.082  0.00  0.00     0.000 N 
HETATM    7  C   UNK     0     141.622 131.633 155.264  0.00  0.00     0.006 A 
HETATM    8  C   UNK     0     140.246 132.068 154.725  0.00  0.00     0.060 A 
HETATM    9  C   UNK     0     141.756 130.325 156.066  0.00  0.00     0.038 A 
HETATM   10  C   UNK     0     142.863 132.507 155.003  0.00  0.00    -0.001 A 
HETATM   11  C   UNK     0     139.005 131.195 154.986  0.00  0.00     0.063 A 
HETATM   12  C   UNK     0     140.515 129.451 156.327  0.00  0.00     0.061 A 
HETATM   13  C   UNK     0     140.112 133.376 153.924  0.00  0.00     0.200 A 
HETATM   14  C   UNK     0     144.238 132.072 155.543  0.00  0.00     0.061 A 
HETATM   15  C   UNK     0     142.728 133.816 154.202  0.00  0.00     0.076 A 
HETATM   16  C   UNK     0     137.630 131.629 154.447  0.00  0.00     0.052 C 
HETATM   17  C   UNK     0     143.132 129.890 156.606  0.00  0.00     0.117 A 
HETATM   18  C   UNK     0     140.650 128.143 157.129  0.00  0.00     0.052 C 
HETATM   19  C   UNK     0     145.479 132.946 155.281  0.00  0.00     0.157 A 
HETATM   20  C   UNK     0     143.969 134.689 153.940  0.00  0.00     0.054 A 
HETATM   21  C   UNK     0     145.345 134.254 154.480  0.00  0.00     0.040 A 
ENDROOT
BRANCH  13  22
HETATM   22  O   UNK     0     138.737 133.811 153.384  0.00  0.00    -0.311 OA
BRANCH  22  23
HETATM   23  C   UNK     0     138.544 135.231 152.823  0.00  0.00     0.151 C 
BRANCH  23  24
HETATM   24  C   UNK     0     138.117 136.378 153.759  0.00  0.00     0.030 C 
HETATM   25  C   UNK     0     137.053 136.130 154.844  0.00  0.00     0.003 C 
HETATM   26  C   UNK     0     138.753 137.772 153.609  0.00  0.00     0.003 C 
ENDBRANCH  23  24
ENDBRANCH  22  23
ENDBRANCH  13  22
BRANCH  17  27
HETATM   27  O   UNK     0     143.266 128.582 157.406  0.00  0.00    -0.326 OA
HETATM   28  C   UNK     0     143.632 128.629 158.902  0.00  0.00     0.181 C 
ENDBRANCH  17  27
TORSDOF 4
ENDMDL
MODEL 10
REMARK VINA RESULT:      -7.3     18.627     21.691
REMARK  4 active torsions:
REMARK  status: ('A' for Active; 'I' for Inactive)
REMARK    1  A    between atoms: O_1  and  C_15 
REMARK    2  A    between atoms: O_1  and  C_22 
REMARK    3  A    between atoms: O_2  and  C_19 
REMARK    4  A    between atoms: C_21  and  C_22 
ROOT
HETATM    1  O   UNK     0     139.969 132.307 154.276  0.00  0.00    -0.290 OA
HETATM    2  O   UNK     0     144.145 130.133 156.786  0.00  0.00     0.000 OA
HETATM    3  O   UNK     0     142.351 127.835 157.781  0.00  0.00    -0.223 OA
HETATM    4  O   UNK     0     144.740 129.015 157.662  0.00  0.00     0.000 OA
HETATM    5  N   UNK     0     144.748 134.666 154.039  0.00  0.00    -0.254 NA
HETATM    6  N   UNK     0     143.248 128.984 157.283  0.00  0.00     0.000 N 
HETATM    7  C   UNK     0     142.954 132.369 155.034  0.00  0.00     0.006 A 
HETATM    8  C   UNK     0     142.358 133.487 154.158  0.00  0.00     0.060 A 
HETATM    9  C   UNK     0     144.446 132.400 155.413  0.00  0.00     0.038 A 
HETATM   10  C   UNK     0     142.057 131.220 155.531  0.00  0.00    -0.001 A 
HETATM   11  C   UNK     0     143.255 134.636 153.660  0.00  0.00     0.063 A 
HETATM   12  C   UNK     0     145.344 133.548 154.915  0.00  0.00     0.061 A 
HETATM   13  C   UNK     0     140.866 133.456 153.779  0.00  0.00     0.200 A 
HETATM   14  C   UNK     0     142.652 130.102 156.407  0.00  0.00     0.061 A 
HETATM   15  C   UNK     0     140.564 131.190 155.152  0.00  0.00     0.076 A 
HETATM   16  C   UNK     0     142.661 135.753 152.784  0.00  0.00     0.052 C 
HETATM   17  C   UNK     0     145.042 131.282 156.289  0.00  0.00     0.117 A 
HETATM   18  C   UNK     0     146.836 133.579 155.294  0.00  0.00     0.052 C 
HETATM   19  C   UNK     0     141.755 128.954 156.905  0.00  0.00     0.157 A 
HETATM   20  C   UNK     0     139.667 130.041 155.649  0.00  0.00     0.054 A 
HETATM   21  C   UNK     0     140.263 128.923 156.526  0.00  0.00     0.040 A 
ENDROOT
BRANCH  13  22
HETATM   22  O   UNK     0     140.271 134.574 152.903  0.00  0.00    -0.311 OA
BRANCH  22  23
HETATM   23  C   UNK     0     138.748 134.794 152.866  0.00  0.00     0.151 C 
BRANCH  23  24
HETATM   24  C   UNK     0     138.024 135.375 154.095  0.00  0.00     0.030 C 
HETATM   25  C   UNK     0     137.271 134.439 155.059  0.00  0.00     0.003 C 
HETATM   26  C   UNK     0     138.053 136.892 154.361  0.00  0.00     0.003 C 
ENDBRANCH  23  24
ENDBRANCH  22  23
ENDBRANCH  13  22
BRANCH  17  27
HETATM   27  O   UNK     0     146.534 131.313 156.667  0.00  0.00    -0.326 OA
HETATM   28  C   UNK     0     147.490 130.237 156.119  0.00  0.00     0.181 C 
ENDBRANCH  17  27
TORSDOF 4
ENDMDL
