MODEL 1
REMARK VINA RESULT:      -6.0      0.000      0.000
REMARK  2 active torsions:
REMARK  status: ('A' for Active; 'I' for Inactive)
REMARK    1  A    between atoms: N_6  and  C_14 
REMARK    2  A    between atoms: C_9  and  C_10 
ROOT
HETATM    1  O   UNK     0     167.509 131.633 157.454  0.00  0.00    -0.168 OA
HETATM    2  N   UNK     0     167.239 130.131 155.340  0.00  0.00    -0.223 NA
HETATM    3  N   UNK     0     164.421 128.987 156.990  0.00  0.00    -0.241 NA
HETATM    4  C   UNK     0     165.405 128.220 154.511  0.00  0.00     0.014 A 
HETATM    5  C   UNK     0     166.666 129.091 154.358  0.00  0.00     0.059 A 
HETATM    6  C   UNK     0     164.406 128.174 155.682  0.00  0.00     0.071 A 
HETATM    7  C   UNK     0     164.975 127.186 153.362  0.00  0.00     0.075 A 
HETATM    8  C   UNK     0     167.584 128.989 153.047  0.00  0.00     0.052 A 
HETATM    9  C   UNK     0     165.439 130.048 157.450  0.00  0.00     0.146 A 
HETATM   10  C   UNK     0     165.869 127.059 152.038  0.00  0.00     0.087 A 
HETATM   11  C   UNK     0     166.693 130.557 156.715  0.00  0.00     0.232 A 
HETATM   12  C   UNK     0     167.182 127.966 151.879  0.00  0.00     0.052 A 
ENDROOT
BRANCH   6  13
HETATM   13  C   UNK     0     163.238 127.184 155.525  0.00  0.00    -0.027 A 
HETATM   14  C   UNK     0     163.358 125.754 156.087  0.00  0.00     0.024 A 
HETATM   15  C   UNK     0     162.189 124.764 155.929  0.00  0.00     0.004 A 
HETATM   16  C   UNK     0     160.901 125.203 155.210  0.00  0.00     0.001 A 
HETATM   17  C   UNK     0     160.780 126.631 154.648  0.00  0.00     0.004 A 
HETATM   18  C   UNK     0     161.948 127.621 154.805  0.00  0.00     0.024 A 
ENDBRANCH   6  13
BRANCH  10  19
HETATM   19  N   UNK     0     165.470 126.071 150.925  0.00  0.00    -0.122 N 
HETATM   20  O   UNK     0     164.105 126.209 150.226  0.00  0.00    -0.532 OA
HETATM   21  O   UNK     0     166.436 124.946 150.512  0.00  0.00    -0.532 OA
ENDBRANCH  10  19
TORSDOF 2
ENDMDL
MODEL 2
REMARK VINA RESULT:      -5.8     13.776     16.007
REMARK  2 active torsions:
REMARK  status: ('A' for Active; 'I' for Inactive)
REMARK    1  A    between atoms: N_6  and  C_14 
REMARK    2  A    between atoms: C_9  and  C_10 
ROOT
HETATM    1  O   UNK     0     180.373 136.307 146.562  0.00  0.00    -0.168 OA
HETATM    2  N   UNK     0     179.174 134.128 147.343  0.00  0.00    -0.223 NA
HETATM    3  N   UNK     0     177.792 134.217 144.172  0.00  0.00    -0.241 NA
HETATM    4  C   UNK     0     177.381 132.353 146.187  0.00  0.00     0.014 A 
HETATM    5  C   UNK     0     178.274 132.878 147.327  0.00  0.00     0.059 A 
HETATM    6  C   UNK     0     177.166 132.949 144.783  0.00  0.00     0.071 A 
HETATM    7  C   UNK     0     176.511 131.017 146.371  0.00  0.00     0.075 A 
HETATM    8  C   UNK     0     178.360 132.103 148.728  0.00  0.00     0.052 A 
HETATM    9  C   UNK     0     178.787 135.201 144.813  0.00  0.00     0.146 A 
HETATM   10  C   UNK     0     176.574 130.218 147.759  0.00  0.00     0.087 A 
HETATM   11  C   UNK     0     179.402 135.162 146.225  0.00  0.00     0.232 A 
HETATM   12  C   UNK     0     177.504 130.765 148.946  0.00  0.00     0.052 A 
ENDROOT
BRANCH   6  13
HETATM   13  C   UNK     0     176.198 132.175 143.870  0.00  0.00    -0.027 A 
HETATM   14  C   UNK     0     176.640 130.846 143.228  0.00  0.00     0.024 A 
HETATM   15  C   UNK     0     175.671 130.072 142.314  0.00  0.00     0.004 A 
HETATM   16  C   UNK     0     174.261 130.627 142.043  0.00  0.00     0.001 A 
HETATM   17  C   UNK     0     173.818 131.955 142.684  0.00  0.00     0.004 A 
HETATM   18  C   UNK     0     174.787 132.729 143.598  0.00  0.00     0.024 A 
ENDBRANCH   6  13
BRANCH  10  19
HETATM   19  N   UNK     0     175.745 128.934 147.952  0.00  0.00    -0.122 N 
HETATM   20  O   UNK     0     174.754 128.826 149.126  0.00  0.00    -0.532 OA
HETATM   21  O   UNK     0     175.909 127.758 146.972  0.00  0.00    -0.532 OA
ENDBRANCH  10  19
TORSDOF 2
ENDMDL
MODEL 3
REMARK VINA RESULT:      -5.7     62.792     64.198
REMARK  2 active torsions:
REMARK  status: ('A' for Active; 'I' for Inactive)
REMARK    1  A    between atoms: N_6  and  C_14 
REMARK    2  A    between atoms: C_9  and  C_10 
ROOT
HETATM    1  O   UNK     0     123.116 182.136 151.870  0.00  0.00    -0.168 OA
HETATM    2  N   UNK     0     123.751 180.621 149.845  0.00  0.00    -0.223 NA
HETATM    3  N   UNK     0     123.558 178.080 152.185  0.00  0.00    -0.241 NA
HETATM    4  C   UNK     0     124.173 177.902 149.484  0.00  0.00     0.014 A 
HETATM    5  C   UNK     0     124.091 179.368 149.017  0.00  0.00     0.059 A 
HETATM    6  C   UNK     0     123.936 177.329 150.893  0.00  0.00     0.071 A 
HETATM    7  C   UNK     0     124.546 176.730 148.454  0.00  0.00     0.075 A 
HETATM    8  C   UNK     0     124.376 179.762 147.488  0.00  0.00     0.052 A 
HETATM    9  C   UNK     0     123.325 179.589 152.385  0.00  0.00     0.146 A 
HETATM   10  C   UNK     0     124.837 177.089 146.919  0.00  0.00     0.087 A 
HETATM   11  C   UNK     0     123.410 180.720 151.343  0.00  0.00     0.232 A 
HETATM   12  C   UNK     0     124.752 178.615 146.433  0.00  0.00     0.052 A 
ENDROOT
BRANCH   6  13
HETATM   13  C   UNK     0     124.098 175.804 151.030  0.00  0.00    -0.027 A 
HETATM   14  C   UNK     0     125.239 175.225 151.889  0.00  0.00     0.024 A 
HETATM   15  C   UNK     0     125.400 173.699 152.025  0.00  0.00     0.004 A 
HETATM   16  C   UNK     0     124.422 172.754 151.304  0.00  0.00     0.001 A 
HETATM   17  C   UNK     0     123.282 173.332 150.447  0.00  0.00     0.004 A 
HETATM   18  C   UNK     0     123.120 174.858 150.310  0.00  0.00     0.024 A 
ENDBRANCH   6  13
BRANCH  10  19
HETATM   19  N   UNK     0     125.197 175.975 145.918  0.00  0.00    -0.122 N 
HETATM   20  O   UNK     0     126.247 176.235 144.821  0.00  0.00    -0.532 OA
HETATM   21  O   UNK     0     124.507 174.602 146.013  0.00  0.00    -0.532 OA
ENDBRANCH  10  19
TORSDOF 2
ENDMDL
MODEL 4
REMARK VINA RESULT:      -5.5     54.659     56.258
REMARK  2 active torsions:
REMARK  status: ('A' for Active; 'I' for Inactive)
REMARK    1  A    between atoms: N_6  and  C_14 
REMARK    2  A    between atoms: C_9  and  C_10 
ROOT
HETATM    1  O   UNK     0     128.972 171.646 160.303  0.00  0.00    -0.168 OA
HETATM    2  N   UNK     0     131.015 171.414 158.700  0.00  0.00    -0.223 NA
HETATM    3  N   UNK     0     129.446 173.961 156.961  0.00  0.00    -0.241 NA
HETATM    4  C   UNK     0     131.831 172.673 156.365  0.00  0.00     0.014 A 
HETATM    5  C   UNK     0     131.968 171.655 157.514  0.00  0.00     0.059 A 
HETATM    6  C   UNK     0     130.710 173.698 156.119  0.00  0.00     0.071 A 
HETATM    7  C   UNK     0     132.944 172.768 155.214  0.00  0.00     0.075 A 
HETATM    8  C   UNK     0     133.226 170.664 157.590  0.00  0.00     0.052 A 
HETATM    9  C   UNK     0     128.994 173.262 158.257  0.00  0.00     0.146 A 
HETATM   10  C   UNK     0     134.215 171.792 155.259  0.00  0.00     0.087 A 
HETATM   11  C   UNK     0     129.692 172.128 159.031  0.00  0.00     0.232 A 
HETATM   12  C   UNK     0     134.357 170.733 156.455  0.00  0.00     0.052 A 
ENDROOT
BRANCH   6  13
HETATM   13  C   UNK     0     130.872 174.578 154.866  0.00  0.00    -0.027 A 
HETATM   14  C   UNK     0     131.360 176.033 155.005  0.00  0.00     0.024 A 
HETATM   15  C   UNK     0     131.522 176.913 153.750  0.00  0.00     0.004 A 
HETATM   16  C   UNK     0     131.196 176.338 152.360  0.00  0.00     0.001 A 
HETATM   17  C   UNK     0     130.708 174.885 152.221  0.00  0.00     0.004 A 
HETATM   18  C   UNK     0     130.546 174.005 153.475  0.00  0.00     0.024 A 
ENDBRANCH   6  13
BRANCH  10  19
HETATM   19  N   UNK     0     135.293 171.871 154.161  0.00  0.00    -0.122 N 
HETATM   20  O   UNK     0     135.659 170.614 153.350  0.00  0.00    -0.532 OA
HETATM   21  O   UNK     0     136.005 173.206 153.876  0.00  0.00    -0.532 OA
ENDBRANCH  10  19
TORSDOF 2
ENDMDL
MODEL 5
REMARK VINA RESULT:      -5.3     22.451     25.467
REMARK  2 active torsions:
REMARK  status: ('A' for Active; 'I' for Inactive)
REMARK    1  A    between atoms: N_6  and  C_14 
REMARK    2  A    between atoms: C_9  and  C_10 
ROOT
HETATM    1  O   UNK     0     162.192 148.076 166.090  0.00  0.00    -0.168 OA
HETATM    2  N   UNK     0     159.861 146.912 165.997  0.00  0.00    -0.223 NA
HETATM    3  N   UNK     0     158.707 150.006 167.028  0.00  0.00    -0.241 NA
HETATM    4  C   UNK     0     157.250 147.703 166.507  0.00  0.00     0.014 A 
HETATM    5  C   UNK     0     158.339 146.694 166.095  0.00  0.00     0.059 A 
HETATM    6  C   UNK     0     157.414 149.176 166.922  0.00  0.00     0.071 A 
HETATM    7  C   UNK     0     155.705 147.274 166.545  0.00  0.00     0.075 A 
HETATM    8  C   UNK     0     157.958 145.189 165.693  0.00  0.00     0.052 A 
HETATM    9  C   UNK     0     160.156 149.567 166.745  0.00  0.00     0.146 A 
HETATM   10  C   UNK     0     155.288 145.777 166.150  0.00  0.00     0.087 A 
HETATM   11  C   UNK     0     160.670 148.190 166.286  0.00  0.00     0.232 A 
HETATM   12  C   UNK     0     156.423 144.728 165.721  0.00  0.00     0.052 A 
ENDROOT
BRANCH   6  13
HETATM   13  C   UNK     0     156.113 149.918 167.278  0.00  0.00    -0.027 A 
HETATM   14  C   UNK     0     155.527 149.808 168.699  0.00  0.00     0.024 A 
HETATM   15  C   UNK     0     154.226 150.551 169.055  0.00  0.00     0.004 A 
HETATM   16  C   UNK     0     153.510 151.403 167.991  0.00  0.00     0.001 A 
HETATM   17  C   UNK     0     154.095 151.513 166.571  0.00  0.00     0.004 A 
HETATM   18  C   UNK     0     155.396 150.771 166.215  0.00  0.00     0.024 A 
ENDBRANCH   6  13
BRANCH  10  19
HETATM   19  N   UNK     0     153.808 145.350 166.182  0.00  0.00    -0.122 N 
HETATM   20  O   UNK     0     153.126 144.841 164.899  0.00  0.00    -0.532 OA
HETATM   21  O   UNK     0     153.012 145.433 167.497  0.00  0.00    -0.532 OA
ENDBRANCH  10  19
TORSDOF 2
ENDMDL
MODEL 6
REMARK VINA RESULT:      -5.2     16.077     19.538
REMARK  2 active torsions:
REMARK  status: ('A' for Active; 'I' for Inactive)
REMARK    1  A    between atoms: N_6  and  C_14 
REMARK    2  A    between atoms: C_9  and  C_10 
ROOT
HETATM    1  O   UNK     0     167.318 138.822 164.610  0.00  0.00    -0.168 OA
HETATM    2  N   UNK     0     168.654 137.285 166.239  0.00  0.00    -0.223 NA
HETATM    3  N   UNK     0     168.346 139.968 168.402  0.00  0.00    -0.241 NA
HETATM    4  C   UNK     0     169.596 137.529 168.838  0.00  0.00     0.014 A 
HETATM    5  C   UNK     0     169.382 136.791 167.503  0.00  0.00     0.059 A 
HETATM    6  C   UNK     0     169.136 138.943 169.238  0.00  0.00     0.071 A 
HETATM    7  C   UNK     0     170.391 136.833 170.045  0.00  0.00     0.075 A 
HETATM    8  C   UNK     0     169.947 135.306 167.284  0.00  0.00     0.052 A 
HETATM    9  C   UNK     0     167.823 139.833 166.960  0.00  0.00     0.146 A 
HETATM   10  C   UNK     0     170.970 135.349 169.860  0.00  0.00     0.087 A 
HETATM   11  C   UNK     0     167.960 138.638 165.997  0.00  0.00     0.232 A 
HETATM   12  C   UNK     0     170.746 134.580 168.470  0.00  0.00     0.052 A 
ENDROOT
BRANCH   6  13
HETATM   13  C   UNK     0     169.514 139.391 170.662  0.00  0.00    -0.027 A 
HETATM   14  C   UNK     0     170.861 140.094 170.916  0.00  0.00     0.024 A 
HETATM   15  C   UNK     0     171.238 140.542 172.340  0.00  0.00     0.004 A 
HETATM   16  C   UNK     0     170.270 140.287 173.509  0.00  0.00     0.001 A 
HETATM   17  C   UNK     0     168.924 139.585 173.256  0.00  0.00     0.004 A 
HETATM   18  C   UNK     0     168.545 139.137 171.832  0.00  0.00     0.024 A 
ENDBRANCH   6  13
BRANCH  10  19
HETATM   19  N   UNK     0     171.735 134.666 171.010  0.00  0.00    -0.122 N 
HETATM   20  O   UNK     0     171.501 133.174 171.311  0.00  0.00    -0.532 OA
HETATM   21  O   UNK     0     172.733 135.476 171.857  0.00  0.00    -0.532 OA
ENDBRANCH  10  19
TORSDOF 2
ENDMDL
MODEL 7
REMARK VINA RESULT:      -5.2     68.149     69.880
REMARK  2 active torsions:
REMARK  status: ('A' for Active; 'I' for Inactive)
REMARK    1  A    between atoms: N_6  and  C_14 
REMARK    2  A    between atoms: C_9  and  C_10 
ROOT
HETATM    1  O   UNK     0     115.546 172.934 157.855  0.00  0.00    -0.168 OA
HETATM    2  N   UNK     0     115.953 173.715 155.401  0.00  0.00    -0.223 NA
HETATM    3  N   UNK     0     112.775 175.047 155.708  0.00  0.00    -0.241 NA
HETATM    4  C   UNK     0     114.481 175.129 153.521  0.00  0.00     0.014 A 
HETATM    5  C   UNK     0     115.720 174.364 154.024  0.00  0.00     0.059 A 
HETATM    6  C   UNK     0     113.171 175.433 154.270  0.00  0.00     0.071 A 
HETATM    7  C   UNK     0     114.435 175.735 152.036  0.00  0.00     0.075 A 
HETATM    8  C   UNK     0     116.998 174.152 153.078  0.00  0.00     0.052 A 
HETATM    9  C   UNK     0     113.592 174.263 156.752  0.00  0.00     0.146 A 
HETATM   10  C   UNK     0     115.695 175.542 151.064  0.00  0.00     0.087 A 
HETATM   11  C   UNK     0     115.007 173.669 156.615  0.00  0.00     0.232 A 
HETATM   12  C   UNK     0     116.985 174.745 151.588  0.00  0.00     0.052 A 
ENDROOT
BRANCH   6  13
HETATM   13  C   UNK     0     112.117 176.227 153.477  0.00  0.00    -0.027 A 
HETATM   14  C   UNK     0     111.201 175.502 152.473  0.00  0.00     0.024 A 
HETATM   15  C   UNK     0     110.147 176.298 151.680  0.00  0.00     0.004 A 
HETATM   16  C   UNK     0     110.009 177.816 151.892  0.00  0.00     0.001 A 
HETATM   17  C   UNK     0     110.924 178.541 152.896  0.00  0.00     0.004 A 
HETATM   18  C   UNK     0     111.978 177.746 153.688  0.00  0.00     0.024 A 
ENDBRANCH   6  13
BRANCH  10  19
HETATM   19  N   UNK     0     115.667 176.118 149.635  0.00  0.00    -0.122 N 
HETATM   20  O   UNK     0     114.623 177.184 149.255  0.00  0.00    -0.532 OA
HETATM   21  O   UNK     0     116.682 175.626 148.587  0.00  0.00    -0.532 OA
ENDBRANCH  10  19
TORSDOF 2
ENDMDL
MODEL 8
REMARK VINA RESULT:      -5.2     15.941     18.575
REMARK  2 active torsions:
REMARK  status: ('A' for Active; 'I' for Inactive)
REMARK    1  A    between atoms: N_6  and  C_14 
REMARK    2  A    between atoms: C_9  and  C_10 
ROOT
HETATM    1  O   UNK     0     167.734 137.694 166.215  0.00  0.00    -0.168 OA
HETATM    2  N   UNK     0     165.427 138.713 165.551  0.00  0.00    -0.223 NA
HETATM    3  N   UNK     0     167.189 141.690 165.521  0.00  0.00    -0.241 NA
HETATM    4  C   UNK     0     164.501 141.265 164.978  0.00  0.00     0.014 A 
HETATM    5  C   UNK     0     164.351 139.743 165.162  0.00  0.00     0.059 A 
HETATM    6  C   UNK     0     165.764 142.132 165.138  0.00  0.00     0.071 A 
HETATM    7  C   UNK     0     163.244 142.173 164.566  0.00  0.00     0.075 A 
HETATM    8  C   UNK     0     162.933 139.024 164.946  0.00  0.00     0.052 A 
HETATM    9  C   UNK     0     167.703 140.274 165.840  0.00  0.00     0.146 A 
HETATM   10  C   UNK     0     161.812 141.486 164.342  0.00  0.00     0.087 A 
HETATM   11  C   UNK     0     166.919 138.949 165.853  0.00  0.00     0.232 A 
HETATM   12  C   UNK     0     161.656 139.901 164.534  0.00  0.00     0.052 A 
ENDROOT
BRANCH   6  13
HETATM   13  C   UNK     0     165.578 143.638 164.881  0.00  0.00    -0.027 A 
HETATM   14  C   UNK     0     165.743 144.203 163.457  0.00  0.00     0.024 A 
HETATM   15  C   UNK     0     165.556 145.710 163.200  0.00  0.00     0.004 A 
HETATM   16  C   UNK     0     165.205 146.652 164.366  0.00  0.00     0.001 A 
HETATM   17  C   UNK     0     165.039 146.088 165.789  0.00  0.00     0.004 A 
HETATM   18  C   UNK     0     165.226 144.581 166.046  0.00  0.00     0.024 A 
ENDBRANCH   6  13
BRANCH  10  19
HETATM   19  N   UNK     0     160.595 142.343 163.946  0.00  0.00    -0.122 N 
HETATM   20  O   UNK     0     160.803 143.752 163.362  0.00  0.00    -0.532 OA
HETATM   21  O   UNK     0     159.170 141.790 164.135  0.00  0.00    -0.532 OA
ENDBRANCH  10  19
TORSDOF 2
ENDMDL
MODEL 9
REMARK VINA RESULT:      -5.2     56.329     58.696
REMARK  2 active torsions:
REMARK  status: ('A' for Active; 'I' for Inactive)
REMARK    1  A    between atoms: N_6  and  C_14 
REMARK    2  A    between atoms: C_9  and  C_10 
ROOT
HETATM    1  O   UNK     0     139.584 184.167 157.543  0.00  0.00    -0.168 OA
HETATM    2  N   UNK     0     140.863 183.735 159.774  0.00  0.00    -0.223 NA
HETATM    3  N   UNK     0     142.858 181.724 157.787  0.00  0.00    -0.241 NA
HETATM    4  C   UNK     0     143.073 182.225 160.508  0.00  0.00     0.014 A 
HETATM    5  C   UNK     0     141.899 183.187 160.773  0.00  0.00     0.059 A 
HETATM    6  C   UNK     0     143.499 181.574 159.179  0.00  0.00     0.071 A 
HETATM    7  C   UNK     0     144.049 181.770 161.697  0.00  0.00     0.075 A 
HETATM    8  C   UNK     0     141.621 183.760 162.245  0.00  0.00     0.052 A 
HETATM    9  C   UNK     0     141.631 182.562 157.379  0.00  0.00     0.146 A 
HETATM   10  C   UNK     0     143.799 182.323 163.181  0.00  0.00     0.087 A 
HETATM   11  C   UNK     0     140.744 183.457 158.264  0.00  0.00     0.232 A 
HETATM   12  C   UNK     0     142.577 183.325 163.457  0.00  0.00     0.052 A 
ENDROOT
BRANCH   6  13
HETATM   13  C   UNK     0     144.730 180.651 159.252  0.00  0.00    -0.027 A 
HETATM   14  C   UNK     0     144.545 179.136 159.461  0.00  0.00     0.024 A 
HETATM   15  C   UNK     0     145.776 178.213 159.534  0.00  0.00     0.004 A 
HETATM   16  C   UNK     0     147.190 178.805 159.397  0.00  0.00     0.001 A 
HETATM   17  C   UNK     0     147.376 180.319 159.188  0.00  0.00     0.004 A 
HETATM   18  C   UNK     0     146.145 181.242 159.116  0.00  0.00     0.024 A 
ENDBRANCH   6  13
BRANCH  10  19
HETATM   19  N   UNK     0     144.727 181.896 164.334  0.00  0.00    -0.122 N 
HETATM   20  O   UNK     0     144.309 182.153 165.794  0.00  0.00    -0.532 OA
HETATM   21  O   UNK     0     146.072 181.213 164.026  0.00  0.00    -0.532 OA
ENDBRANCH  10  19
TORSDOF 2
ENDMDL
MODEL 10
REMARK VINA RESULT:      -5.0     40.405     42.657
REMARK  2 active torsions:
REMARK  status: ('A' for Active; 'I' for Inactive)
REMARK    1  A    between atoms: N_6  and  C_14 
REMARK    2  A    between atoms: C_9  and  C_10 
ROOT
HETATM    1  O   UNK     0     127.596 151.835 158.057  0.00  0.00    -0.168 OA
HETATM    2  N   UNK     0     129.456 152.920 159.527  0.00  0.00    -0.223 NA
HETATM    3  N   UNK     0     131.013 153.445 156.482  0.00  0.00    -0.241 NA
HETATM    4  C   UNK     0     131.902 154.129 159.021  0.00  0.00     0.014 A 
HETATM    5  C   UNK     0     130.764 153.627 159.929  0.00  0.00     0.059 A 
HETATM    6  C   UNK     0     132.013 154.048 157.487  0.00  0.00     0.071 A 
HETATM    7  C   UNK     0     133.195 154.848 159.642  0.00  0.00     0.075 A 
HETATM    8  C   UNK     0     130.840 153.809 161.521  0.00  0.00     0.052 A 
HETATM    9  C   UNK     0     129.656 152.774 156.763  0.00  0.00     0.146 A 
HETATM   10  C   UNK     0     133.303 155.046 161.230  0.00  0.00     0.087 A 
HETATM   11  C   UNK     0     128.963 152.541 158.119  0.00  0.00     0.232 A 
HETATM   12  C   UNK     0     132.118 154.523 162.175  0.00  0.00     0.052 A 
ENDROOT
BRANCH   6  13
HETATM   13  C   UNK     0     133.293 154.649 156.877  0.00  0.00    -0.027 A 
HETATM   14  C   UNK     0     134.487 153.737 156.539  0.00  0.00     0.024 A 
HETATM   15  C   UNK     0     135.767 154.339 155.929  0.00  0.00     0.004 A 
HETATM   16  C   UNK     0     135.852 155.852 155.657  0.00  0.00     0.001 A 
HETATM   17  C   UNK     0     134.659 156.764 155.995  0.00  0.00     0.004 A 
HETATM   18  C   UNK     0     133.379 156.163 156.605  0.00  0.00     0.024 A 
ENDBRANCH   6  13
BRANCH  10  19
HETATM   19  N   UNK     0     134.538 155.734 161.842  0.00  0.00    -0.122 N 
HETATM   20  O   UNK     0     134.369 156.715 163.017  0.00  0.00    -0.532 OA
HETATM   21  O   UNK     0     135.941 155.441 161.279  0.00  0.00    -0.532 OA
ENDBRANCH  10  19
TORSDOF 2
ENDMDL
