MODEL 1
REMARK VINA RESULT:      -7.4      0.000      0.000
REMARK  1 active torsions:
REMARK  status: ('A' for Active; 'I' for Inactive)
REMARK    1  A    between atoms: C_3  and  C_9 
ROOT
HETATM    1  C   UNK     0     151.124 150.476 145.874  0.00  0.00     0.013 A 
HETATM    2  N   UNK     0     153.200 150.575 147.301  0.00  0.00    -0.241 NA
HETATM    3  C   UNK     0     152.325 150.069 146.155  0.00  0.00     0.071 A 
HETATM    4  N   UNK     0     150.231 152.377 147.538  0.00  0.00    -0.223 NA
HETATM    5  C   UNK     0     150.148 151.526 146.489  0.00  0.00     0.059 A 
HETATM    6  C   UNK     0     151.432 152.529 148.475  0.00  0.00     0.232 A 
HETATM    7  C   UNK     0     150.664 149.673 144.642  0.00  0.00     0.062 A 
HETATM    8  C   UNK     0     152.808 151.683 148.353  0.00  0.00     0.146 A 
HETATM    9  C   UNK     0     148.755 151.750 145.871  0.00  0.00     0.051 A 
HETATM   10  O   UNK     0     151.314 153.557 149.605  0.00  0.00    -0.168 OA
HETATM   11  C   UNK     0     149.277 149.900 144.032  0.00  0.00     0.018 A 
HETATM   12  C   UNK     0     148.323 150.938 144.646  0.00  0.00     0.040 A 
HETATM   13 Cl   UNK     0     148.830 149.082 142.791  0.00  0.00    -0.091 Cl
ENDROOT
BRANCH   3  14
HETATM   14  C   UNK     0     152.918 148.979 145.253  0.00  0.00    -0.027 A 
HETATM   15  C   UNK     0     153.741 149.366 144.017  0.00  0.00     0.024 A 
HETATM   16  C   UNK     0     154.337 148.286 143.110  0.00  0.00     0.004 A 
HETATM   17  C   UNK     0     154.105 146.799 143.449  0.00  0.00     0.001 A 
HETATM   18  C   UNK     0     153.281 146.387 144.685  0.00  0.00     0.004 A 
HETATM   19  C   UNK     0     152.686 147.493 145.591  0.00  0.00     0.024 A 
ENDBRANCH   3  14
TORSDOF 1
ENDMDL
MODEL 2
REMARK VINA RESULT:      -7.3      5.561      6.952
REMARK  1 active torsions:
REMARK  status: ('A' for Active; 'I' for Inactive)
REMARK    1  A    between atoms: C_3  and  C_9 
ROOT
HETATM    1  C   UNK     0     149.024 146.484 142.377  0.00  0.00     0.013 A 
HETATM    2  N   UNK     0     149.946 144.139 142.495  0.00  0.00    -0.241 NA
HETATM    3  C   UNK     0     149.968 145.653 142.706  0.00  0.00     0.071 A 
HETATM    4  N   UNK     0     146.913 145.293 141.236  0.00  0.00    -0.223 NA
HETATM    5  C   UNK     0     147.623 146.344 141.706  0.00  0.00     0.059 A 
HETATM    6  C   UNK     0     147.361 143.829 141.251  0.00  0.00     0.232 A 
HETATM    7  C   UNK     0     149.510 147.886 142.789  0.00  0.00     0.062 A 
HETATM    8  C   UNK     0     148.777 143.307 141.840  0.00  0.00     0.146 A 
HETATM    9  C   UNK     0     146.748 147.589 141.465  0.00  0.00     0.051 A 
HETATM   10  O   UNK     0     146.397 142.793 140.665  0.00  0.00    -0.168 OA
HETATM   11  C   UNK     0     148.635 149.121 142.546  0.00  0.00     0.018 A 
HETATM   12  C   UNK     0     147.255 148.972 141.884  0.00  0.00     0.040 A 
HETATM   13 Cl   UNK     0     149.140 150.526 142.967  0.00  0.00    -0.091 Cl
ENDROOT
BRANCH   3  14
HETATM   14  C   UNK     0     151.218 146.248 143.366  0.00  0.00    -0.027 A 
HETATM   15  C   UNK     0     151.313 146.337 144.895  0.00  0.00     0.024 A 
HETATM   16  C   UNK     0     152.557 146.929 145.564  0.00  0.00     0.004 A 
HETATM   17  C   UNK     0     153.719 147.438 144.686  0.00  0.00     0.001 A 
HETATM   18  C   UNK     0     153.646 147.358 143.148  0.00  0.00     0.004 A 
HETATM   19  C   UNK     0     152.380 146.756 142.489  0.00  0.00     0.024 A 
ENDBRANCH   3  14
TORSDOF 1
ENDMDL
MODEL 3
REMARK VINA RESULT:      -7.2     16.245     17.950
REMARK  1 active torsions:
REMARK  status: ('A' for Active; 'I' for Inactive)
REMARK    1  A    between atoms: C_3  and  C_9 
ROOT
HETATM    1  C   UNK     0     136.175 142.719 148.497  0.00  0.00     0.013 A 
HETATM    2  N   UNK     0     137.821 141.489 147.036  0.00  0.00    -0.241 NA
HETATM    3  C   UNK     0     136.895 141.669 148.239  0.00  0.00     0.071 A 
HETATM    4  N   UNK     0     136.437 144.662 146.672  0.00  0.00    -0.223 NA
HETATM    5  C   UNK     0     135.949 144.095 147.799  0.00  0.00     0.059 A 
HETATM    6  C   UNK     0     137.437 144.021 145.706  0.00  0.00     0.232 A 
HETATM    7  C   UNK     0     135.421 142.422 149.807  0.00  0.00     0.062 A 
HETATM    8  C   UNK     0     138.073 142.542 145.888  0.00  0.00     0.146 A 
HETATM    9  C   UNK     0     134.989 145.132 148.414  0.00  0.00     0.051 A 
HETATM   10  O   UNK     0     137.859 144.843 144.484  0.00  0.00    -0.168 OA
HETATM   11  C   UNK     0     134.467 143.457 150.414  0.00  0.00     0.018 A 
HETATM   12  C   UNK     0     134.251 144.811 149.718  0.00  0.00     0.040 A 
HETATM   13 Cl   UNK     0     133.715 143.141 151.734  0.00  0.00    -0.091 Cl
ENDROOT
BRANCH   3  14
HETATM   14  C   UNK     0     136.808 140.504 149.232  0.00  0.00    -0.027 A 
HETATM   15  C   UNK     0     135.957 139.271 148.901  0.00  0.00     0.024 A 
HETATM   16  C   UNK     0     135.863 138.102 149.886  0.00  0.00     0.004 A 
HETATM   17  C   UNK     0     136.634 138.174 151.221  0.00  0.00     0.001 A 
HETATM   18  C   UNK     0     137.495 139.402 151.575  0.00  0.00     0.004 A 
HETATM   19  C   UNK     0     137.578 140.575 150.566  0.00  0.00     0.024 A 
ENDBRANCH   3  14
TORSDOF 1
ENDMDL
MODEL 4
REMARK VINA RESULT:      -7.2      5.506      7.233
REMARK  1 active torsions:
REMARK  status: ('A' for Active; 'I' for Inactive)
REMARK    1  A    between atoms: C_3  and  C_9 
ROOT
HETATM    1  C   UNK     0     150.010 145.567 142.314  0.00  0.00     0.013 A 
HETATM    2  N   UNK     0     149.268 147.976 142.246  0.00  0.00    -0.241 NA
HETATM    3  C   UNK     0     150.227 146.826 142.552  0.00  0.00     0.071 A 
HETATM    4  N   UNK     0     147.628 145.096 141.181  0.00  0.00    -0.223 NA
HETATM    5  C   UNK     0     148.834 144.754 141.690  0.00  0.00     0.059 A 
HETATM    6  C   UNK     0     147.066 146.517 141.085  0.00  0.00     0.232 A 
HETATM    7  C   UNK     0     151.260 144.807 142.795  0.00  0.00     0.062 A 
HETATM    8  C   UNK     0     147.841 147.849 141.585  0.00  0.00     0.146 A 
HETATM    9  C   UNK     0     148.929 143.221 141.562  0.00  0.00     0.051 A 
HETATM   10  O   UNK     0     145.672 146.680 140.471  0.00  0.00    -0.168 OA
HETATM   11  C   UNK     0     151.349 143.283 142.666  0.00  0.00     0.018 A 
HETATM   12  C   UNK     0     150.184 142.490 142.049  0.00  0.00     0.040 A 
HETATM   13 Cl   UNK     0     152.616 142.533 143.156  0.00  0.00    -0.091 Cl
ENDROOT
BRANCH   3  14
HETATM   14  C   UNK     0     151.569 147.189 143.201  0.00  0.00    -0.027 A 
HETATM   15  C   UNK     0     151.675 147.325 144.726  0.00  0.00     0.024 A 
HETATM   16  C   UNK     0     153.010 147.687 145.383  0.00  0.00     0.004 A 
HETATM   17  C   UNK     0     154.252 147.917 144.498  0.00  0.00     0.001 A 
HETATM   18  C   UNK     0     154.168 147.786 142.964  0.00  0.00     0.004 A 
HETATM   19  C   UNK     0     152.810 147.419 142.316  0.00  0.00     0.024 A 
ENDBRANCH   3  14
TORSDOF 1
ENDMDL
MODEL 5
REMARK VINA RESULT:      -7.1     74.961     77.065
REMARK  1 active torsions:
REMARK  status: ('A' for Active; 'I' for Inactive)
REMARK    1  A    between atoms: C_3  and  C_9 
ROOT
HETATM    1  C   UNK     0     161.042 130.444 219.418  0.00  0.00     0.013 A 
HETATM    2  N   UNK     0     161.986 131.691 217.440  0.00  0.00    -0.241 NA
HETATM    3  C   UNK     0     161.375 131.556 218.834  0.00  0.00     0.071 A 
HETATM    4  N   UNK     0     161.530 128.274 217.925  0.00  0.00    -0.223 NA
HETATM    5  C   UNK     0     161.103 128.936 219.025  0.00  0.00     0.059 A 
HETATM    6  C   UNK     0     162.120 128.915 216.666  0.00  0.00     0.232 A 
HETATM    7  C   UNK     0     160.474 130.825 220.798  0.00  0.00     0.062 A 
HETATM    8  C   UNK     0     162.326 130.508 216.454  0.00  0.00     0.146 A 
HETATM    9  C   UNK     0     160.603 127.856 220.002  0.00  0.00     0.051 A 
HETATM   10  O   UNK     0     162.542 127.975 215.531  0.00  0.00    -0.168 OA
HETATM   11  C   UNK     0     159.978 129.746 221.767  0.00  0.00     0.018 A 
HETATM   12  C   UNK     0     160.042 128.262 221.369  0.00  0.00     0.040 A 
HETATM   13 Cl   UNK     0     159.408 130.148 223.153  0.00  0.00    -0.091 Cl
ENDROOT
BRANCH   3  14
HETATM   14  C   UNK     0     161.130 132.853 219.617  0.00  0.00    -0.027 A 
HETATM   15  C   UNK     0     159.814 133.622 219.442  0.00  0.00     0.024 A 
HETATM   16  C   UNK     0     159.561 134.916 220.219  0.00  0.00     0.004 A 
HETATM   17  C   UNK     0     160.643 135.445 221.184  0.00  0.00     0.001 A 
HETATM   18  C   UNK     0     161.972 134.689 221.375  0.00  0.00     0.004 A 
HETATM   19  C   UNK     0     162.212 133.381 220.581  0.00  0.00     0.024 A 
ENDBRANCH   3  14
TORSDOF 1
ENDMDL
MODEL 6
REMARK VINA RESULT:      -6.9     14.647     17.714
REMARK  1 active torsions:
REMARK  status: ('A' for Active; 'I' for Inactive)
REMARK    1  A    between atoms: C_3  and  C_9 
ROOT
HETATM    1  C   UNK     0     151.654 165.841 149.291  0.00  0.00     0.013 A 
HETATM    2  N   UNK     0     151.590 165.884 146.770  0.00  0.00    -0.241 NA
HETATM    3  C   UNK     0     151.532 166.490 148.172  0.00  0.00     0.071 A 
HETATM    4  N   UNK     0     152.037 163.210 148.955  0.00  0.00    -0.223 NA
HETATM    5  C   UNK     0     151.885 164.346 149.674  0.00  0.00     0.059 A 
HETATM    6  C   UNK     0     152.017 163.107 147.428  0.00  0.00     0.232 A 
HETATM    7  C   UNK     0     151.525 166.881 150.419  0.00  0.00     0.062 A 
HETATM    8  C   UNK     0     151.808 164.361 146.423  0.00  0.00     0.146 A 
HETATM    9  C   UNK     0     151.980 163.927 151.153  0.00  0.00     0.051 A 
HETATM   10  O   UNK     0     152.210 161.716 146.815  0.00  0.00    -0.168 OA
HETATM   11  C   UNK     0     151.621 166.459 151.889  0.00  0.00     0.018 A 
HETATM   12  C   UNK     0     151.849 164.982 152.256  0.00  0.00     0.040 A 
HETATM   13 Cl   UNK     0     151.489 167.520 153.014  0.00  0.00    -0.091 Cl
ENDROOT
BRANCH   3  14
HETATM   14  C   UNK     0     151.309 168.005 148.269  0.00  0.00    -0.027 A 
HETATM   15  C   UNK     0     152.400 168.975 147.797  0.00  0.00     0.024 A 
HETATM   16  C   UNK     0     152.187 170.489 147.890  0.00  0.00     0.004 A 
HETATM   17  C   UNK     0     150.862 171.034 148.462  0.00  0.00     0.001 A 
HETATM   18  C   UNK     0     149.753 170.077 148.942  0.00  0.00     0.004 A 
HETATM   19  C   UNK     0     149.985 168.550 148.841  0.00  0.00     0.024 A 
ENDBRANCH   3  14
TORSDOF 1
ENDMDL
MODEL 7
REMARK VINA RESULT:      -6.8     64.927     66.270
REMARK  1 active torsions:
REMARK  status: ('A' for Active; 'I' for Inactive)
REMARK    1  A    between atoms: C_3  and  C_9 
ROOT
HETATM    1  C   UNK     0     153.484 160.744 210.943  0.00  0.00     0.013 A 
HETATM    2  N   UNK     0     153.446 158.430 209.943  0.00  0.00    -0.241 NA
HETATM    3  C   UNK     0     152.831 159.700 210.529  0.00  0.00     0.071 A 
HETATM    4  N   UNK     0     156.140 160.505 210.687  0.00  0.00    -0.223 NA
HETATM    5  C   UNK     0     154.992 161.135 211.026  0.00  0.00     0.059 A 
HETATM    6  C   UNK     0     156.248 159.106 210.074  0.00  0.00     0.232 A 
HETATM    7  C   UNK     0     152.431 161.752 211.441  0.00  0.00     0.062 A 
HETATM    8  C   UNK     0     154.985 158.151 209.733  0.00  0.00     0.146 A 
HETATM    9  C   UNK     0     155.411 162.504 211.595  0.00  0.00     0.051 A 
HETATM   10  O   UNK     0     157.654 158.581 209.766  0.00  0.00    -0.168 OA
HETATM   11  C   UNK     0     152.854 163.113 212.006  0.00  0.00     0.018 A 
HETATM   12  C   UNK     0     154.343 163.489 212.083  0.00  0.00     0.040 A 
HETATM   13 Cl   UNK     0     151.780 164.116 212.502  0.00  0.00    -0.091 Cl
ENDROOT
BRANCH   3  14
HETATM   14  C   UNK     0     151.301 159.749 210.638  0.00  0.00    -0.027 A 
HETATM   15  C   UNK     0     150.470 160.398 209.524  0.00  0.00     0.024 A 
HETATM   16  C   UNK     0     148.943 160.451 209.623  0.00  0.00     0.004 A 
HETATM   17  C   UNK     0     148.243 159.845 210.858  0.00  0.00     0.001 A 
HETATM   18  C   UNK     0     149.058 159.188 211.989  0.00  0.00     0.004 A 
HETATM   19  C   UNK     0     150.602 159.143 211.871  0.00  0.00     0.024 A 
ENDBRANCH   3  14
TORSDOF 1
ENDMDL
MODEL 8
REMARK VINA RESULT:      -6.8     76.053     76.742
REMARK  1 active torsions:
REMARK  status: ('A' for Active; 'I' for Inactive)
REMARK    1  A    between atoms: C_3  and  C_9 
ROOT
HETATM    1  C   UNK     0     191.899 112.997 199.100  0.00  0.00     0.013 A 
HETATM    2  N   UNK     0     190.098 111.342 199.713  0.00  0.00    -0.241 NA
HETATM    3  C   UNK     0     191.383 111.807 199.028  0.00  0.00     0.071 A 
HETATM    4  N   UNK     0     190.473 114.681 200.620  0.00  0.00    -0.223 NA
HETATM    5  C   UNK     0     191.503 114.324 199.819  0.00  0.00     0.059 A 
HETATM    6  C   UNK     0     189.324 113.772 201.062  0.00  0.00     0.232 A 
HETATM    7  C   UNK     0     193.181 112.973 198.248  0.00  0.00     0.062 A 
HETATM    8  C   UNK     0     189.162 112.218 200.632  0.00  0.00     0.146 A 
HETATM    9  C   UNK     0     192.383 115.580 199.674  0.00  0.00     0.051 A 
HETATM   10  O   UNK     0     188.257 114.382 201.976  0.00  0.00    -0.168 OA
HETATM   11  C   UNK     0     194.053 114.226 198.107  0.00  0.00     0.018 A 
HETATM   12  C   UNK     0     193.654 115.529 198.820  0.00  0.00     0.040 A 
HETATM   13 Cl   UNK     0     195.341 114.183 197.244  0.00  0.00    -0.091 Cl
ENDROOT
BRANCH   3  14
HETATM   14  C   UNK     0     192.133 110.775 198.177  0.00  0.00    -0.027 A 
HETATM   15  C   UNK     0     193.333 110.018 198.764  0.00  0.00     0.024 A 
HETATM   16  C   UNK     0     194.088 108.986 197.922  0.00  0.00     0.004 A 
HETATM   17  C   UNK     0     193.633 108.710 196.474  0.00  0.00     0.001 A 
HETATM   18  C   UNK     0     192.432 109.458 195.864  0.00  0.00     0.004 A 
HETATM   19  C   UNK     0     191.679 110.499 196.729  0.00  0.00     0.024 A 
ENDBRANCH   3  14
TORSDOF 1
ENDMDL
MODEL 9
REMARK VINA RESULT:      -6.7     74.386     75.859
REMARK  1 active torsions:
REMARK  status: ('A' for Active; 'I' for Inactive)
REMARK    1  A    between atoms: C_3  and  C_9 
ROOT
HETATM    1  C   UNK     0     174.113 111.394 207.235  0.00  0.00     0.013 A 
HETATM    2  N   UNK     0     173.920 113.818 206.568  0.00  0.00    -0.241 NA
HETATM    3  C   UNK     0     173.429 112.381 206.739  0.00  0.00     0.071 A 
HETATM    4  N   UNK     0     176.588 112.090 207.986  0.00  0.00    -0.223 NA
HETATM    5  C   UNK     0     175.554 111.236 207.811  0.00  0.00     0.059 A 
HETATM    6  C   UNK     0     176.594 113.577 207.623  0.00  0.00     0.232 A 
HETATM    7  C   UNK     0     173.194 110.159 207.197  0.00  0.00     0.062 A 
HETATM    8  C   UNK     0     175.344 114.369 206.963  0.00  0.00     0.146 A 
HETATM    9  C   UNK     0     176.040 109.869 208.328  0.00  0.00     0.051 A 
HETATM   10  O   UNK     0     177.878 114.365 207.908  0.00  0.00    -0.168 OA
HETATM   11  C   UNK     0     173.683 108.801 207.712  0.00  0.00     0.018 A 
HETATM   12  C   UNK     0     175.106 108.656 208.278  0.00  0.00     0.040 A 
HETATM   13 Cl   UNK     0     172.743 107.567 207.666  0.00  0.00    -0.091 Cl
ENDROOT
BRANCH   3  14
HETATM   14  C   UNK     0     171.997 112.073 206.281  0.00  0.00    -0.027 A 
HETATM   15  C   UNK     0     170.861 111.992 207.309  0.00  0.00     0.024 A 
HETATM   16  C   UNK     0     169.429 111.686 206.862  0.00  0.00     0.004 A 
HETATM   17  C   UNK     0     169.135 111.459 205.365  0.00  0.00     0.001 A 
HETATM   18  C   UNK     0     170.261 111.536 204.315  0.00  0.00     0.004 A 
HETATM   19  C   UNK     0     171.703 111.847 204.784  0.00  0.00     0.024 A 
ENDBRANCH   3  14
TORSDOF 1
ENDMDL
MODEL 10
REMARK VINA RESULT:      -6.6     13.950     16.559
REMARK  1 active torsions:
REMARK  status: ('A' for Active; 'I' for Inactive)
REMARK    1  A    between atoms: C_3  and  C_9 
ROOT
HETATM    1  C   UNK     0     151.882 166.220 149.559  0.00  0.00     0.013 A 
HETATM    2  N   UNK     0     151.791 167.001 147.162  0.00  0.00    -0.241 NA
HETATM    3  C   UNK     0     151.652 165.990 148.301  0.00  0.00     0.071 A 
HETATM    4  N   UNK     0     152.661 168.736 150.052  0.00  0.00    -0.223 NA
HETATM    5  C   UNK     0     152.342 167.463 150.381  0.00  0.00     0.059 A 
HETATM    6  C   UNK     0     152.645 169.327 148.640  0.00  0.00     0.232 A 
HETATM    7  C   UNK     0     151.604 164.902 150.305  0.00  0.00     0.062 A 
HETATM    8  C   UNK     0     152.238 168.507 147.303  0.00  0.00     0.146 A 
HETATM    9  C   UNK     0     152.514 167.365 151.909  0.00  0.00     0.051 A 
HETATM   10  O   UNK     0     153.044 170.799 148.490  0.00  0.00    -0.168 OA
HETATM   11  C   UNK     0     151.776 164.810 151.825  0.00  0.00     0.018 A 
HETATM   12  C   UNK     0     152.231 166.041 152.627  0.00  0.00     0.040 A 
HETATM   13 Cl   UNK     0     151.492 163.474 152.560  0.00  0.00    -0.091 Cl
ENDROOT
BRANCH   3  14
HETATM   14  C   UNK     0     151.200 164.573 147.925  0.00  0.00    -0.027 A 
HETATM   15  C   UNK     0     149.710 164.209 147.944  0.00  0.00     0.024 A 
HETATM   16  C   UNK     0     149.249 162.798 147.571  0.00  0.00     0.004 A 
HETATM   17  C   UNK     0     150.298 161.739 147.173  0.00  0.00     0.001 A 
HETATM   18  C   UNK     0     151.800 162.082 147.146  0.00  0.00     0.004 A 
HETATM   19  C   UNK     0     152.249 163.515 147.527  0.00  0.00     0.024 A 
ENDBRANCH   3  14
TORSDOF 1
ENDMDL
