MODEL 1
REMARK VINA RESULT:      -8.3      0.000      0.000
REMARK  0 active torsions:
REMARK  status: ('A' for Active; 'I' for Inactive)
REMARK       I    between atoms: N_8  and  C_16 
ROOT
HETATM    1  C   UNK     0     146.105 148.938 141.410  0.00  0.00     0.005 A 
HETATM    2  C   UNK     0     147.117 148.010 140.724  0.00  0.00     0.007 A 
HETATM    3  C   UNK     0     148.526 147.855 141.303  0.00  0.00     0.044 A 
HETATM    4  C   UNK     0     146.498 149.706 142.669  0.00  0.00     0.028 A 
HETATM    5  C   UNK     0     148.920 148.625 142.564  0.00  0.00     0.040 A 
HETATM    6  C   UNK     0     147.903 149.556 143.252  0.00  0.00    -0.008 A 
HETATM    7  C   UNK     0     148.088 150.422 144.525  0.00  0.00     0.024 A 
HETATM    8  N   UNK     0     150.384 148.323 142.977  0.00  0.00    -0.283 N 
HETATM    9  C   UNK     0     149.335 150.569 145.423  0.00  0.00     0.128 A 
HETATM   10  C   UNK     0     150.710 149.883 145.267  0.00  0.00     0.015 A 
HETATM   11  C   UNK     0     151.180 148.887 144.184  0.00  0.00     0.042 A 
HETATM   12  C   UNK     0     152.615 148.324 144.227  0.00  0.00     0.044 A 
HETATM   13  C   UNK     0     153.580 148.756 145.352  0.00  0.00     0.007 A 
HETATM   14  C   UNK     0     153.102 149.757 146.436  0.00  0.00     0.005 A 
HETATM   15  C   UNK     0     151.669 150.315 146.387  0.00  0.00     0.030 A 
HETATM   16  C   UNK     0     151.141 147.344 142.078  0.00  0.00     0.271 C 
HETATM   17  N   UNK     0     150.447 146.729 140.859  0.00  0.00    -0.053 NA
HETATM   18  O   UNK     0     152.592 146.977 142.396  0.00  0.00    -0.154 OA
HETATM   19  O   UNK     0     149.190 151.514 146.619  0.00  0.00    -0.191 OA
ENDROOT
TORSDOF 0
ENDMDL
MODEL 2
REMARK VINA RESULT:      -7.3     25.638     28.566
REMARK  0 active torsions:
REMARK  status: ('A' for Active; 'I' for Inactive)
REMARK       I    between atoms: N_8  and  C_16 
ROOT
HETATM    1  C   UNK     0     173.056 148.796 165.594  0.00  0.00     0.005 A 
HETATM    2  C   UNK     0     173.623 148.807 164.167  0.00  0.00     0.007 A 
HETATM    3  C   UNK     0     172.866 149.528 163.049  0.00  0.00     0.044 A 
HETATM    4  C   UNK     0     171.739 149.504 165.902  0.00  0.00     0.028 A 
HETATM    5  C   UNK     0     171.546 150.237 163.358  0.00  0.00     0.040 A 
HETATM    6  C   UNK     0     170.978 150.226 164.790  0.00  0.00    -0.008 A 
HETATM    7  C   UNK     0     169.673 150.873 165.320  0.00  0.00     0.024 A 
HETATM    8  N   UNK     0     170.950 150.900 162.089  0.00  0.00    -0.283 N 
HETATM    9  C   UNK     0     168.614 151.690 164.548  0.00  0.00     0.128 A 
HETATM   10  C   UNK     0     168.602 152.061 163.048  0.00  0.00     0.015 A 
HETATM   11  C   UNK     0     169.636 151.713 161.954  0.00  0.00     0.042 A 
HETATM   12  C   UNK     0     169.416 152.196 160.506  0.00  0.00     0.044 A 
HETATM   13  C   UNK     0     168.163 153.027 160.152  0.00  0.00     0.007 A 
HETATM   14  C   UNK     0     167.129 153.372 161.255  0.00  0.00     0.005 A 
HETATM   15  C   UNK     0     167.355 152.888 162.698  0.00  0.00     0.030 A 
HETATM   16  C   UNK     0     171.763 150.729 160.804  0.00  0.00     0.271 C 
HETATM   17  N   UNK     0     173.077 149.943 160.827  0.00  0.00    -0.053 NA
HETATM   18  O   UNK     0     171.264 151.345 159.495  0.00  0.00    -0.154 OA
HETATM   19  O   UNK     0     167.427 152.194 165.372  0.00  0.00    -0.191 OA
ENDROOT
TORSDOF 0
ENDMDL
MODEL 3
REMARK VINA RESULT:      -7.1      2.411      2.953
REMARK  0 active torsions:
REMARK  status: ('A' for Active; 'I' for Inactive)
REMARK       I    between atoms: N_8  and  C_16 
ROOT
HETATM    1  C   UNK     0     147.458 144.362 141.519  0.00  0.00     0.005 A 
HETATM    2  C   UNK     0     148.890 143.850 141.730  0.00  0.00     0.007 A 
HETATM    3  C   UNK     0     149.876 144.663 142.573  0.00  0.00     0.044 A 
HETATM    4  C   UNK     0     147.015 145.681 142.145  0.00  0.00     0.028 A 
HETATM    5  C   UNK     0     149.432 145.985 143.200  0.00  0.00     0.040 A 
HETATM    6  C   UNK     0     147.995 146.499 142.987  0.00  0.00    -0.008 A 
HETATM    7  C   UNK     0     147.340 147.797 143.525  0.00  0.00     0.024 A 
HETATM    8  N   UNK     0     150.581 146.642 144.008  0.00  0.00    -0.283 N 
HETATM    9  C   UNK     0     147.961 148.901 144.409  0.00  0.00     0.128 A 
HETATM   10  C   UNK     0     149.397 148.977 144.973  0.00  0.00     0.015 A 
HETATM   11  C   UNK     0     150.562 147.977 144.798  0.00  0.00     0.042 A 
HETATM   12  C   UNK     0     151.926 148.262 145.461  0.00  0.00     0.044 A 
HETATM   13  C   UNK     0     152.125 149.544 146.298  0.00  0.00     0.007 A 
HETATM   14  C   UNK     0     150.950 150.543 146.469  0.00  0.00     0.005 A 
HETATM   15  C   UNK     0     149.593 150.253 145.805  0.00  0.00     0.030 A 
HETATM   16  C   UNK     0     151.905 145.874 144.028  0.00  0.00     0.271 C 
HETATM   17  N   UNK     0     152.030 144.544 143.280  0.00  0.00    -0.053 NA
HETATM   18  O   UNK     0     153.104 146.435 144.796  0.00  0.00    -0.154 OA
HETATM   19  O   UNK     0     147.038 150.067 144.770  0.00  0.00    -0.191 OA
ENDROOT
TORSDOF 0
ENDMDL
MODEL 4
REMARK VINA RESULT:      -6.9     21.763     22.303
REMARK  0 active torsions:
REMARK  status: ('A' for Active; 'I' for Inactive)
REMARK       I    between atoms: N_8  and  C_16 
ROOT
HETATM    1  C   UNK     0     146.418 133.501 155.097  0.00  0.00     0.005 A 
HETATM    2  C   UNK     0     146.203 132.232 155.934  0.00  0.00     0.007 A 
HETATM    3  C   UNK     0     144.805 131.619 156.046  0.00  0.00     0.044 A 
HETATM    4  C   UNK     0     145.242 134.153 154.375  0.00  0.00     0.028 A 
HETATM    5  C   UNK     0     143.627 132.272 155.323  0.00  0.00     0.040 A 
HETATM    6  C   UNK     0     143.843 133.545 154.483  0.00  0.00    -0.008 A 
HETATM    7  C   UNK     0     142.802 134.363 153.676  0.00  0.00     0.024 A 
HETATM    8  N   UNK     0     142.309 131.492 155.569  0.00  0.00    -0.283 N 
HETATM    9  C   UNK     0     141.288 134.109 153.510  0.00  0.00     0.128 A 
HETATM   10  C   UNK     0     140.441 132.968 154.115  0.00  0.00     0.015 A 
HETATM   11  C   UNK     0     140.889 131.805 155.029  0.00  0.00     0.042 A 
HETATM   12  C   UNK     0     139.856 130.770 155.518  0.00  0.00     0.044 A 
HETATM   13  C   UNK     0     138.376 130.896 155.095  0.00  0.00     0.007 A 
HETATM   14  C   UNK     0     137.934 132.066 154.177  0.00  0.00     0.005 A 
HETATM   15  C   UNK     0     138.969 133.095 153.693  0.00  0.00     0.030 A 
HETATM   16  C   UNK     0     142.425 130.254 156.460  0.00  0.00     0.271 C 
HETATM   17  N   UNK     0     143.782 129.855 157.046  0.00  0.00    -0.053 NA
HETATM   18  O   UNK     0     141.184 129.412 156.767  0.00  0.00    -0.154 OA
HETATM   19  O   UNK     0     140.533 135.114 152.637  0.00  0.00    -0.191 OA
ENDROOT
TORSDOF 0
ENDMDL
MODEL 5
REMARK VINA RESULT:      -6.5     77.691     78.654
REMARK  0 active torsions:
REMARK  status: ('A' for Active; 'I' for Inactive)
REMARK       I    between atoms: N_8  and  C_16 
ROOT
HETATM    1  C   UNK     0     191.604 117.432 200.698  0.00  0.00     0.005 A 
HETATM    2  C   UNK     0     192.909 117.519 199.894  0.00  0.00     0.007 A 
HETATM    3  C   UNK     0     193.488 116.261 199.240  0.00  0.00     0.044 A 
HETATM    4  C   UNK     0     190.882 116.096 200.849  0.00  0.00     0.028 A 
HETATM    5  C   UNK     0     192.765 114.922 199.391  0.00  0.00     0.040 A 
HETATM    6  C   UNK     0     191.456 114.837 200.198  0.00  0.00    -0.008 A 
HETATM    7  C   UNK     0     190.567 113.597 200.476  0.00  0.00     0.024 A 
HETATM    8  N   UNK     0     193.519 113.786 198.654  0.00  0.00    -0.283 N 
HETATM    9  C   UNK     0     190.769 112.137 200.014  0.00  0.00     0.128 A 
HETATM   10  C   UNK     0     191.917 111.558 199.156  0.00  0.00     0.015 A 
HETATM   11  C   UNK     0     193.138 112.285 198.551  0.00  0.00     0.042 A 
HETATM   12  C   UNK     0     194.169 111.495 197.719  0.00  0.00     0.044 A 
HETATM   13  C   UNK     0     193.979 109.979 197.492  0.00  0.00     0.007 A 
HETATM   14  C   UNK     0     192.750 109.256 198.103  0.00  0.00     0.005 A 
HETATM   15  C   UNK     0     191.726 110.050 198.932  0.00  0.00     0.030 A 
HETATM   16  C   UNK     0     194.806 114.197 197.935  0.00  0.00     0.271 C 
HETATM   17  N   UNK     0     195.273 115.655 197.974  0.00  0.00    -0.053 NA
HETATM   18  O   UNK     0     195.628 113.152 197.177  0.00  0.00    -0.154 OA
HETATM   19  O   UNK     0     189.699 111.139 200.462  0.00  0.00    -0.191 OA
ENDROOT
TORSDOF 0
ENDMDL
MODEL 6
REMARK VINA RESULT:      -6.3     20.296     20.904
REMARK  0 active torsions:
REMARK  status: ('A' for Active; 'I' for Inactive)
REMARK       I    between atoms: N_8  and  C_16 
ROOT
HETATM    1  C   UNK     0     146.619 132.312 155.850  0.00  0.00     0.005 A 
HETATM    2  C   UNK     0     145.530 131.367 156.378  0.00  0.00     0.007 A 
HETATM    3  C   UNK     0     144.068 131.589 155.983  0.00  0.00     0.044 A 
HETATM    4  C   UNK     0     146.248 133.473 154.932  0.00  0.00     0.028 A 
HETATM    5  C   UNK     0     143.696 132.753 155.063  0.00  0.00     0.040 A 
HETATM    6  C   UNK     0     144.789 133.701 154.534  0.00  0.00    -0.008 A 
HETATM    7  C   UNK     0     144.638 134.930 153.601  0.00  0.00     0.024 A 
HETATM    8  N   UNK     0     142.170 132.795 154.792  0.00  0.00    -0.283 N 
HETATM    9  C   UNK     0     143.356 135.513 152.968  0.00  0.00     0.128 A 
HETATM   10  C   UNK     0     141.904 135.007 153.114  0.00  0.00     0.015 A 
HETATM   11  C   UNK     0     141.373 133.802 153.922  0.00  0.00     0.042 A 
HETATM   12  C   UNK     0     139.864 133.480 153.922  0.00  0.00     0.044 A 
HETATM   13  C   UNK     0     138.887 134.363 153.116  0.00  0.00     0.007 A 
HETATM   14  C   UNK     0     139.427 135.571 152.307  0.00  0.00     0.005 A 
HETATM   15  C   UNK     0     140.933 135.886 152.310  0.00  0.00     0.030 A 
HETATM   16  C   UNK     0     141.343 131.701 155.472  0.00  0.00     0.271 C 
HETATM   17  N   UNK     0     142.032 130.656 156.353  0.00  0.00    -0.053 NA
HETATM   18  O   UNK     0     139.827 131.651 155.270  0.00  0.00    -0.154 OA
HETATM   19  O   UNK     0     143.548 136.748 152.084  0.00  0.00    -0.191 OA
ENDROOT
TORSDOF 0
ENDMDL
MODEL 7
REMARK VINA RESULT:      -6.3     22.901     23.778
REMARK  0 active torsions:
REMARK  status: ('A' for Active; 'I' for Inactive)
REMARK       I    between atoms: N_8  and  C_16 
ROOT
HETATM    1  C   UNK     0     158.403 144.329 165.340  0.00  0.00     0.005 A 
HETATM    2  C   UNK     0     157.123 143.975 166.111  0.00  0.00     0.007 A 
HETATM    3  C   UNK     0     156.121 145.074 166.474  0.00  0.00     0.044 A 
HETATM    4  C   UNK     0     158.680 145.774 164.935  0.00  0.00     0.028 A 
HETATM    5  C   UNK     0     156.399 146.522 166.069  0.00  0.00     0.040 A 
HETATM    6  C   UNK     0     157.684 146.876 165.296  0.00  0.00    -0.008 A 
HETATM    7  C   UNK     0     158.161 148.263 164.791  0.00  0.00     0.024 A 
HETATM    8  N   UNK     0     155.263 147.468 166.534  0.00  0.00    -0.283 N 
HETATM    9  C   UNK     0     157.470 149.636 164.935  0.00  0.00     0.128 A 
HETATM   10  C   UNK     0     156.126 149.960 165.623  0.00  0.00     0.015 A 
HETATM   11  C   UNK     0     155.143 149.002 166.334  0.00  0.00     0.042 A 
HETATM   12  C   UNK     0     153.845 149.555 166.957  0.00  0.00     0.044 A 
HETATM   13  C   UNK     0     153.529 151.064 166.870  0.00  0.00     0.007 A 
HETATM   14  C   UNK     0     154.520 152.020 166.155  0.00  0.00     0.005 A 
HETATM   15  C   UNK     0     155.813 151.462 165.536  0.00  0.00     0.030 A 
HETATM   16  C   UNK     0     154.109 146.803 167.289  0.00  0.00     0.271 C 
HETATM   17  N   UNK     0     154.129 145.293 167.540  0.00  0.00    -0.053 NA
HETATM   18  O   UNK     0     152.936 147.647 167.792  0.00  0.00    -0.154 OA
HETATM   19  O   UNK     0     158.210 150.825 164.318  0.00  0.00    -0.191 OA
ENDROOT
TORSDOF 0
ENDMDL
MODEL 8
REMARK VINA RESULT:      -6.1     46.189     48.862
REMARK  0 active torsions:
REMARK  status: ('A' for Active; 'I' for Inactive)
REMARK       I    between atoms: N_8  and  C_16 
ROOT
HETATM    1  C   UNK     0     185.552 179.308 147.729  0.00  0.00     0.005 A 
HETATM    2  C   UNK     0     184.960 178.204 148.615  0.00  0.00     0.007 A 
HETATM    3  C   UNK     0     185.815 177.563 149.712  0.00  0.00     0.044 A 
HETATM    4  C   UNK     0     186.992 179.769 147.937  0.00  0.00     0.028 A 
HETATM    5  C   UNK     0     187.257 178.026 149.921  0.00  0.00     0.040 A 
HETATM    6  C   UNK     0     187.851 179.134 149.030  0.00  0.00    -0.008 A 
HETATM    7  C   UNK     0     189.274 179.749 149.067  0.00  0.00     0.024 A 
HETATM    8  N   UNK     0     187.939 177.250 151.077  0.00  0.00    -0.283 N 
HETATM    9  C   UNK     0     190.453 179.407 150.004  0.00  0.00     0.128 A 
HETATM   10  C   UNK     0     190.497 178.360 151.139  0.00  0.00     0.015 A 
HETATM   11  C   UNK     0     189.385 177.401 151.618  0.00  0.00     0.042 A 
HETATM   12  C   UNK     0     189.657 176.429 152.785  0.00  0.00     0.044 A 
HETATM   13  C   UNK     0     191.040 176.415 153.471  0.00  0.00     0.007 A 
HETATM   14  C   UNK     0     192.152 177.381 152.984  0.00  0.00     0.005 A 
HETATM   15  C   UNK     0     191.874 178.348 151.820  0.00  0.00     0.030 A 
HETATM   16  C   UNK     0     187.072 176.198 151.775  0.00  0.00     0.271 C 
HETATM   17  N   UNK     0     185.629 175.969 151.318  0.00  0.00    -0.053 NA
HETATM   18  O   UNK     0     187.648 175.376 152.930  0.00  0.00    -0.154 OA
HETATM   19  O   UNK     0     191.739 180.205 149.779  0.00  0.00    -0.191 OA
ENDROOT
TORSDOF 0
ENDMDL
MODEL 9
REMARK VINA RESULT:      -6.1     35.757     38.708
REMARK  0 active torsions:
REMARK  status: ('A' for Active; 'I' for Inactive)
REMARK       I    between atoms: N_8  and  C_16 
ROOT
HETATM    1  C   UNK     0     159.701 152.148 178.538  0.00  0.00     0.005 A 
HETATM    2  C   UNK     0     159.545 150.931 177.614  0.00  0.00     0.007 A 
HETATM    3  C   UNK     0     160.001 149.549 178.089  0.00  0.00     0.044 A 
HETATM    4  C   UNK     0     160.309 151.984 179.928  0.00  0.00     0.028 A 
HETATM    5  C   UNK     0     160.610 149.384 179.482  0.00  0.00     0.040 A 
HETATM    6  C   UNK     0     160.766 150.606 180.407  0.00  0.00    -0.008 A 
HETATM    7  C   UNK     0     161.351 150.667 181.842  0.00  0.00     0.024 A 
HETATM    8  N   UNK     0     161.001 147.909 179.758  0.00  0.00    -0.283 N 
HETATM    9  C   UNK     0     161.923 149.520 182.704  0.00  0.00     0.128 A 
HETATM   10  C   UNK     0     162.051 148.025 182.340  0.00  0.00     0.015 A 
HETATM   11  C   UNK     0     161.644 147.306 181.034  0.00  0.00     0.042 A 
HETATM   12  C   UNK     0     161.868 145.787 180.890  0.00  0.00     0.044 A 
HETATM   13  C   UNK     0     162.500 144.986 182.051  0.00  0.00     0.007 A 
HETATM   14  C   UNK     0     162.906 145.715 183.358  0.00  0.00     0.005 A 
HETATM   15  C   UNK     0     162.680 147.230 183.495  0.00  0.00     0.030 A 
HETATM   16  C   UNK     0     160.715 146.922 178.624  0.00  0.00     0.271 C 
HETATM   17  N   UNK     0     160.081 147.414 177.320  0.00  0.00    -0.053 NA
HETATM   18  O   UNK     0     161.062 145.441 178.794  0.00  0.00    -0.154 OA
HETATM   19  O   UNK     0     162.426 149.916 184.094  0.00  0.00    -0.191 OA
ENDROOT
TORSDOF 0
ENDMDL
MODEL 10
REMARK VINA RESULT:      -6.1     77.499     78.312
REMARK  0 active torsions:
REMARK  status: ('A' for Active; 'I' for Inactive)
REMARK       I    between atoms: N_8  and  C_16 
ROOT
HETATM    1  C   UNK     0     191.362 115.697 201.823  0.00  0.00     0.005 A 
HETATM    2  C   UNK     0     192.280 116.663 201.061  0.00  0.00     0.007 A 
HETATM    3  C   UNK     0     193.022 116.184 199.810  0.00  0.00     0.044 A 
HETATM    4  C   UNK     0     191.187 114.260 201.338  0.00  0.00     0.028 A 
HETATM    5  C   UNK     0     192.846 114.745 199.324  0.00  0.00     0.040 A 
HETATM    6  C   UNK     0     191.925 113.777 200.090  0.00  0.00    -0.008 A 
HETATM    7  C   UNK     0     191.605 112.292 199.778  0.00  0.00     0.024 A 
HETATM    8  N   UNK     0     193.683 114.473 198.047  0.00  0.00    -0.283 N 
HETATM    9  C   UNK     0     192.128 111.410 198.622  0.00  0.00     0.128 A 
HETATM   10  C   UNK     0     193.104 111.801 197.490  0.00  0.00     0.015 A 
HETATM   11  C   UNK     0     193.796 113.158 197.231  0.00  0.00     0.042 A 
HETATM   12  C   UNK     0     194.743 113.321 196.025  0.00  0.00     0.044 A 
HETATM   13  C   UNK     0     194.998 112.128 195.077  0.00  0.00     0.007 A 
HETATM   14  C   UNK     0     194.299 110.769 195.344  0.00  0.00     0.005 A 
HETATM   15  C   UNK     0     193.356 110.613 196.549  0.00  0.00     0.030 A 
HETATM   16  C   UNK     0     194.504 115.654 197.525  0.00  0.00     0.271 C 
HETATM   17  N   UNK     0     194.464 116.999 198.257  0.00  0.00    -0.053 NA
HETATM   18  O   UNK     0     195.366 115.493 196.270  0.00  0.00    -0.154 OA
HETATM   19  O   UNK     0     191.615 109.969 198.595  0.00  0.00    -0.191 OA
ENDROOT
TORSDOF 0
ENDMDL
