MODEL 1
REMARK VINA RESULT:      -8.3      0.000      0.000
REMARK  0 active torsions:
REMARK  status: ('A' for Active; 'I' for Inactive)
ROOT
HETATM    1  O   UNK     0     138.660 140.791 147.512  0.00  0.00    -0.304 OA
HETATM    2  O   UNK     0     136.717 145.155 144.949  0.00  0.00    -0.152 OA
HETATM    3  N   UNK     0     136.173 143.899 147.327  0.00  0.00     0.418 N 
HETATM    4  N   UNK     0     137.963 142.905 145.907  0.00  0.00     0.440 N 
HETATM    5  C   UNK     0     136.725 142.659 148.055  0.00  0.00     0.326 A 
HETATM    6  C   UNK     0     135.741 142.903 149.214  0.00  0.00    -0.009 A 
HETATM    7  C   UNK     0     136.946 141.555 149.106  0.00  0.00     0.031 A 
HETATM    8  C   UNK     0     137.831 142.045 147.177  0.00  0.00     0.424 A 
HETATM    9  C   UNK     0     136.938 144.051 145.999  0.00  0.00     0.663 A 
HETATM   10  C   UNK     0     135.342 142.292 150.571  0.00  0.00    -0.032 A 
HETATM   11  C   UNK     0     138.015 140.472 148.871  0.00  0.00     0.072 A 
HETATM   12  C   UNK     0     135.026 144.165 148.699  0.00  0.00     0.024 A 
HETATM   13  C   UNK     0     136.098 141.535 150.391  0.00  0.00    -0.027 A 
HETATM   14  C   UNK     0     138.235 139.368 149.922  0.00  0.00     0.051 A 
HETATM   15  C   UNK     0     134.229 142.944 151.411  0.00  0.00     0.025 A 
HETATM   16  C   UNK     0     133.913 144.818 149.540  0.00  0.00     0.005 A 
HETATM   17  C   UNK     0     136.320 140.432 151.442  0.00  0.00     0.026 A 
HETATM   18  C   UNK     0     137.388 139.348 151.208  0.00  0.00     0.011 A 
HETATM   19  C   UNK     0     133.514 144.207 150.895  0.00  0.00     0.005 A 
ENDROOT
TORSDOF 0
ENDMDL
MODEL 2
REMARK VINA RESULT:      -8.0     14.436     16.221
REMARK  0 active torsions:
REMARK  status: ('A' for Active; 'I' for Inactive)
ROOT
HETATM    1  O   UNK     0     151.995 149.927 144.984  0.00  0.00    -0.304 OA
HETATM    2  O   UNK     0     147.573 152.748 146.354  0.00  0.00    -0.152 OA
HETATM    3  N   UNK     0     148.151 150.839 144.469  0.00  0.00     0.418 N 
HETATM    4  N   UNK     0     150.007 151.537 145.978  0.00  0.00     0.440 N 
HETATM    5  C   UNK     0     149.407 150.038 144.080  0.00  0.00     0.326 A 
HETATM    6  C   UNK     0     148.608 149.324 142.974  0.00  0.00    -0.009 A 
HETATM    7  C   UNK     0     150.355 149.055 143.368  0.00  0.00     0.031 A 
HETATM    8  C   UNK     0     150.554 150.469 145.013  0.00  0.00     0.424 A 
HETATM    9  C   UNK     0     148.521 151.765 145.642  0.00  0.00     0.663 A 
HETATM   10  C   UNK     0     148.805 148.262 141.876  0.00  0.00    -0.032 A 
HETATM   11  C   UNK     0     151.823 148.937 143.820  0.00  0.00     0.072 A 
HETATM   12  C   UNK     0     147.233 149.989 143.164  0.00  0.00     0.024 A 
HETATM   13  C   UNK     0     149.835 148.190 142.205  0.00  0.00    -0.027 A 
HETATM   14  C   UNK     0     152.770 147.955 143.108  0.00  0.00     0.051 A 
HETATM   15  C   UNK     0     147.625 147.865 140.969  0.00  0.00     0.025 A 
HETATM   16  C   UNK     0     146.053 149.592 142.257  0.00  0.00     0.005 A 
HETATM   17  C   UNK     0     150.784 147.208 141.493  0.00  0.00     0.026 A 
HETATM   18  C   UNK     0     152.251 147.090 141.944  0.00  0.00     0.011 A 
HETATM   19  C   UNK     0     146.249 148.530 141.160  0.00  0.00     0.005 A 
ENDROOT
TORSDOF 0
ENDMDL
MODEL 3
REMARK VINA RESULT:      -7.8      2.001      4.375
REMARK  0 active torsions:
REMARK  status: ('A' for Active; 'I' for Inactive)
ROOT
HETATM    1  O   UNK     0     138.817 140.990 147.136  0.00  0.00    -0.304 OA
HETATM    2  O   UNK     0     137.259 138.708 151.800  0.00  0.00    -0.152 OA
HETATM    3  N   UNK     0     136.509 140.935 150.383  0.00  0.00     0.418 N 
HETATM    4  N   UNK     0     138.328 139.537 149.412  0.00  0.00     0.440 N 
HETATM    5  C   UNK     0     136.951 141.584 149.059  0.00  0.00     0.326 A 
HETATM    6  C   UNK     0     135.913 142.703 149.260  0.00  0.00    -0.009 A 
HETATM    7  C   UNK     0     137.052 142.546 147.861  0.00  0.00     0.031 A 
HETATM    8  C   UNK     0     138.075 140.719 148.459  0.00  0.00     0.424 A 
HETATM    9  C   UNK     0     137.359 139.670 150.602  0.00  0.00     0.663 A 
HETATM   10  C   UNK     0     135.402 143.977 148.562  0.00  0.00    -0.032 A 
HETATM   11  C   UNK     0     138.076 142.279 146.742  0.00  0.00     0.072 A 
HETATM   12  C   UNK     0     135.297 142.259 150.599  0.00  0.00     0.024 A 
HETATM   13  C   UNK     0     136.128 143.776 147.782  0.00  0.00    -0.027 A 
HETATM   14  C   UNK     0     138.175 143.242 145.544  0.00  0.00     0.051 A 
HETATM   15  C   UNK     0     134.275 144.808 149.204  0.00  0.00     0.025 A 
HETATM   16  C   UNK     0     134.170 143.089 151.241  0.00  0.00     0.005 A 
HETATM   17  C   UNK     0     136.229 144.739 146.584  0.00  0.00     0.026 A 
HETATM   18  C   UNK     0     137.252 144.472 145.466  0.00  0.00     0.011 A 
HETATM   19  C   UNK     0     133.659 144.363 150.544  0.00  0.00     0.005 A 
ENDROOT
TORSDOF 0
ENDMDL
MODEL 4
REMARK VINA RESULT:      -7.8     14.372     16.484
REMARK  0 active torsions:
REMARK  status: ('A' for Active; 'I' for Inactive)
ROOT
HETATM    1  O   UNK     0     148.841 150.344 145.882  0.00  0.00    -0.304 OA
HETATM    2  O   UNK     0     146.441 146.380 143.070  0.00  0.00    -0.152 OA
HETATM    3  N   UNK     0     149.003 146.885 143.912  0.00  0.00     0.418 N 
HETATM    4  N   UNK     0     147.264 148.565 144.513  0.00  0.00     0.440 N 
HETATM    5  C   UNK     0     149.685 148.011 144.710  0.00  0.00     0.326 A 
HETATM    6  C   UNK     0     151.037 147.285 144.579  0.00  0.00    -0.009 A 
HETATM    7  C   UNK     0     150.751 148.858 145.430  0.00  0.00     0.031 A 
HETATM    8  C   UNK     0     148.610 149.049 145.082  0.00  0.00     0.424 A 
HETATM    9  C   UNK     0     147.507 147.227 143.789  0.00  0.00     0.663 A 
HETATM   10  C   UNK     0     152.511 147.454 144.992  0.00  0.00    -0.032 A 
HETATM   11  C   UNK     0     150.353 150.181 146.111  0.00  0.00     0.072 A 
HETATM   12  C   UNK     0     150.601 146.051 143.769  0.00  0.00     0.024 A 
HETATM   13  C   UNK     0     152.216 148.383 145.467  0.00  0.00    -0.027 A 
HETATM   14  C   UNK     0     151.420 151.027 146.830  0.00  0.00     0.051 A 
HETATM   15  C   UNK     0     153.549 146.387 144.595  0.00  0.00     0.025 A 
HETATM   16  C   UNK     0     151.638 144.984 143.373  0.00  0.00     0.005 A 
HETATM   17  C   UNK     0     153.282 149.230 146.187  0.00  0.00     0.026 A 
HETATM   18  C   UNK     0     152.884 150.552 146.868  0.00  0.00     0.011 A 
HETATM   19  C   UNK     0     153.112 145.152 143.786  0.00  0.00     0.005 A 
ENDROOT
TORSDOF 0
ENDMDL
MODEL 5
REMARK VINA RESULT:      -7.7     13.844     15.718
REMARK  0 active torsions:
REMARK  status: ('A' for Active; 'I' for Inactive)
ROOT
HETATM    1  O   UNK     0     147.827 145.308 142.357  0.00  0.00    -0.304 OA
HETATM    2  O   UNK     0     147.007 150.206 144.528  0.00  0.00    -0.152 OA
HETATM    3  N   UNK     0     149.128 148.471 144.400  0.00  0.00     0.418 N 
HETATM    4  N   UNK     0     147.012 147.753 143.299  0.00  0.00     0.440 N 
HETATM    5  C   UNK     0     149.362 147.079 143.784  0.00  0.00     0.326 A 
HETATM    6  C   UNK     0     150.812 147.095 144.299  0.00  0.00    -0.009 A 
HETATM    7  C   UNK     0     150.032 145.760 143.356  0.00  0.00     0.031 A 
HETATM    8  C   UNK     0     148.054 146.636 143.103  0.00  0.00     0.424 A 
HETATM    9  C   UNK     0     147.677 148.887 144.101  0.00  0.00     0.663 A 
HETATM   10  C   UNK     0     152.074 146.211 144.298  0.00  0.00    -0.032 A 
HETATM   11  C   UNK     0     149.234 144.716 142.553  0.00  0.00     0.072 A 
HETATM   12  C   UNK     0     150.835 148.467 144.996  0.00  0.00     0.024 A 
HETATM   13  C   UNK     0     151.500 145.485 143.732  0.00  0.00    -0.027 A 
HETATM   14  C   UNK     0     149.905 143.398 142.125  0.00  0.00     0.051 A 
HETATM   15  C   UNK     0     153.358 146.700 144.993  0.00  0.00     0.025 A 
HETATM   16  C   UNK     0     152.119 148.957 145.692  0.00  0.00     0.005 A 
HETATM   17  C   UNK     0     152.169 144.166 143.305  0.00  0.00     0.026 A 
HETATM   18  C   UNK     0     151.372 143.123 142.501  0.00  0.00     0.011 A 
HETATM   19  C   UNK     0     153.380 148.074 145.690  0.00  0.00     0.005 A 
ENDROOT
TORSDOF 0
ENDMDL
MODEL 6
REMARK VINA RESULT:      -7.6     14.843     16.886
REMARK  0 active torsions:
REMARK  status: ('A' for Active; 'I' for Inactive)
ROOT
HETATM    1  O   UNK     0     149.638 144.764 142.708  0.00  0.00    -0.304 OA
HETATM    2  O   UNK     0     146.450 148.951 141.408  0.00  0.00    -0.152 OA
HETATM    3  N   UNK     0     149.084 148.666 142.123  0.00  0.00     0.418 N 
HETATM    4  N   UNK     0     147.713 146.588 142.003  0.00  0.00     0.440 N 
HETATM    5  C   UNK     0     149.990 147.477 142.492  0.00  0.00     0.326 A 
HETATM    6  C   UNK     0     151.174 148.440 142.690  0.00  0.00    -0.009 A 
HETATM    7  C   UNK     0     151.217 146.643 142.904  0.00  0.00     0.031 A 
HETATM    8  C   UNK     0     149.142 146.193 142.418  0.00  0.00     0.424 A 
HETATM    9  C   UNK     0     147.677 148.117 141.820  0.00  0.00     0.663 A 
HETATM   10  C   UNK     0     152.664 148.414 143.079  0.00  0.00    -0.032 A 
HETATM   11  C   UNK     0     151.097 145.114 143.046  0.00  0.00     0.072 A 
HETATM   12  C   UNK     0     150.488 149.779 142.361  0.00  0.00     0.024 A 
HETATM   13  C   UNK     0     152.564 147.338 143.175  0.00  0.00    -0.027 A 
HETATM   14  C   UNK     0     152.325 144.281 143.459  0.00  0.00     0.051 A 
HETATM   15  C   UNK     0     153.468 149.726 143.139  0.00  0.00     0.025 A 
HETATM   16  C   UNK     0     151.292 151.091 142.420  0.00  0.00     0.005 A 
HETATM   17  C   UNK     0     153.791 146.504 143.587  0.00  0.00     0.026 A 
HETATM   18  C   UNK     0     153.672 144.976 143.729  0.00  0.00     0.011 A 
HETATM   19  C   UNK     0     152.781 151.065 142.809  0.00  0.00     0.005 A 
ENDROOT
TORSDOF 0
ENDMDL
MODEL 7
REMARK VINA RESULT:      -7.6     16.903     18.666
REMARK  0 active torsions:
REMARK  status: ('A' for Active; 'I' for Inactive)
ROOT
HETATM    1  O   UNK     0     133.487 153.589 163.786  0.00  0.00    -0.304 OA
HETATM    2  O   UNK     0     136.530 151.846 167.920  0.00  0.00    -0.152 OA
HETATM    3  N   UNK     0     136.948 152.251 165.239  0.00  0.00     0.418 N 
HETATM    4  N   UNK     0     134.675 152.766 166.120  0.00  0.00     0.440 N 
HETATM    5  C   UNK     0     136.084 152.746 164.064  0.00  0.00     0.326 A 
HETATM    6  C   UNK     0     137.281 152.572 163.111  0.00  0.00    -0.009 A 
HETATM    7  C   UNK     0     135.631 153.163 162.653  0.00  0.00     0.031 A 
HETATM    8  C   UNK     0     134.679 153.064 164.609  0.00  0.00     0.424 A 
HETATM    9  C   UNK     0     136.077 152.263 166.509  0.00  0.00     0.663 A 
HETATM   10  C   UNK     0     137.641 152.757 161.625  0.00  0.00    -0.032 A 
HETATM   11  C   UNK     0     134.188 153.647 162.418  0.00  0.00     0.072 A 
HETATM   12  C   UNK     0     138.339 152.054 164.101  0.00  0.00     0.024 A 
HETATM   13  C   UNK     0     136.622 153.096 161.476  0.00  0.00    -0.027 A 
HETATM   14  C   UNK     0     133.737 154.064 161.007  0.00  0.00     0.051 A 
HETATM   15  C   UNK     0     139.061 152.424 161.131  0.00  0.00     0.025 A 
HETATM   16  C   UNK     0     139.759 151.721 163.607  0.00  0.00     0.005 A 
HETATM   17  C   UNK     0     136.169 153.513 160.064  0.00  0.00     0.026 A 
HETATM   18  C   UNK     0     134.727 153.997 159.829  0.00  0.00     0.011 A 
HETATM   19  C   UNK     0     140.120 151.906 162.122  0.00  0.00     0.005 A 
ENDROOT
TORSDOF 0
ENDMDL
MODEL 8
REMARK VINA RESULT:      -7.3     13.782     15.847
REMARK  0 active torsions:
REMARK  status: ('A' for Active; 'I' for Inactive)
ROOT
HETATM    1  O   UNK     0     131.921 154.395 160.577  0.00  0.00    -0.304 OA
HETATM    2  O   UNK     0     130.638 154.421 155.310  0.00  0.00    -0.152 OA
HETATM    3  N   UNK     0     132.958 154.105 156.741  0.00  0.00     0.418 N 
HETATM    4  N   UNK     0     130.867 154.476 158.044  0.00  0.00     0.440 N 
HETATM    5  C   UNK     0     133.323 154.098 158.237  0.00  0.00     0.326 A 
HETATM    6  C   UNK     0     134.799 153.854 157.875  0.00  0.00    -0.009 A 
HETATM    7  C   UNK     0     134.125 154.015 159.548  0.00  0.00     0.031 A 
HETATM    8  C   UNK     0     132.030 154.327 159.042  0.00  0.00     0.424 A 
HETATM    9  C   UNK     0     131.441 154.339 156.622  0.00  0.00     0.663 A 
HETATM   10  C   UNK     0     136.165 153.663 158.561  0.00  0.00    -0.032 A 
HETATM   11  C   UNK     0     133.408 154.173 160.902  0.00  0.00     0.072 A 
HETATM   12  C   UNK     0     134.697 153.819 156.340  0.00  0.00     0.024 A 
HETATM   13  C   UNK     0     135.646 153.776 159.506  0.00  0.00    -0.027 A 
HETATM   14  C   UNK     0     134.211 154.091 162.213  0.00  0.00     0.051 A 
HETATM   15  C   UNK     0     137.429 153.437 157.710  0.00  0.00     0.025 A 
HETATM   16  C   UNK     0     135.961 153.593 155.489  0.00  0.00     0.005 A 
HETATM   17  C   UNK     0     136.449 153.694 160.818  0.00  0.00     0.026 A 
HETATM   18  C   UNK     0     135.732 153.851 162.171  0.00  0.00     0.011 A 
HETATM   19  C   UNK     0     137.326 153.401 156.173  0.00  0.00     0.005 A 
ENDROOT
TORSDOF 0
ENDMDL
MODEL 9
REMARK VINA RESULT:      -7.1     28.620     30.405
REMARK  0 active torsions:
REMARK  status: ('A' for Active; 'I' for Inactive)
ROOT
HETATM    1  O   UNK     0     137.496 161.184 168.726  0.00  0.00    -0.304 OA
HETATM    2  O   UNK     0     137.711 166.150 166.563  0.00  0.00    -0.152 OA
HETATM    3  N   UNK     0     137.334 165.148 169.090  0.00  0.00     0.418 N 
HETATM    4  N   UNK     0     137.670 163.495 167.256  0.00  0.00     0.440 N 
HETATM    5  C   UNK     0     137.273 163.738 169.704  0.00  0.00     0.326 A 
HETATM    6  C   UNK     0     137.035 164.355 171.095  0.00  0.00    -0.009 A 
HETATM    7  C   UNK     0     137.141 162.587 170.718  0.00  0.00     0.031 A 
HETATM    8  C   UNK     0     137.480 162.716 168.571  0.00  0.00     0.424 A 
HETATM    9  C   UNK     0     137.579 164.999 167.577  0.00  0.00     0.663 A 
HETATM   10  C   UNK     0     136.813 163.920 172.556  0.00  0.00    -0.032 A 
HETATM   11  C   UNK     0     137.255 161.126 170.244  0.00  0.00     0.072 A 
HETATM   12  C   UNK     0     137.054 165.851 170.732  0.00  0.00     0.024 A 
HETATM   13  C   UNK     0     136.896 162.896 172.207  0.00  0.00    -0.027 A 
HETATM   14  C   UNK     0     137.124 159.975 171.259  0.00  0.00     0.051 A 
HETATM   15  C   UNK     0     136.610 164.981 173.653  0.00  0.00     0.025 A 
HETATM   16  C   UNK     0     136.851 166.912 171.829  0.00  0.00     0.005 A 
HETATM   17  C   UNK     0     136.764 161.745 173.221  0.00  0.00     0.026 A 
HETATM   18  C   UNK     0     136.878 160.284 172.747  0.00  0.00     0.011 A 
HETATM   19  C   UNK     0     136.629 166.478 173.289  0.00  0.00     0.005 A 
ENDROOT
TORSDOF 0
ENDMDL
MODEL 10
REMARK VINA RESULT:      -7.0     79.929     80.968
REMARK  0 active torsions:
REMARK  status: ('A' for Active; 'I' for Inactive)
ROOT
HETATM    1  O   UNK     0     195.387 112.502 197.237  0.00  0.00    -0.304 OA
HETATM    2  O   UNK     0     193.851 117.355 199.099  0.00  0.00    -0.152 OA
HETATM    3  N   UNK     0     192.804 114.821 199.193  0.00  0.00     0.418 N 
HETATM    4  N   UNK     0     194.973 115.105 198.000  0.00  0.00     0.440 N 
HETATM    5  C   UNK     0     193.240 113.442 198.664  0.00  0.00     0.326 A 
HETATM    6  C   UNK     0     191.972 112.810 199.268  0.00  0.00    -0.009 A 
HETATM    7  C   UNK     0     193.263 111.935 198.347  0.00  0.00     0.031 A 
HETATM    8  C   UNK     0     194.580 113.618 197.927  0.00  0.00     0.424 A 
HETATM    9  C   UNK     0     193.874 115.849 198.782  0.00  0.00     0.663 A 
HETATM   10  C   UNK     0     191.282 111.439 199.390  0.00  0.00    -0.032 A 
HETATM   11  C   UNK     0     194.436 111.334 197.550  0.00  0.00     0.072 A 
HETATM   12  C   UNK     0     191.322 114.057 199.893  0.00  0.00     0.024 A 
HETATM   13  C   UNK     0     192.114 111.030 198.828  0.00  0.00    -0.027 A 
HETATM   14  C   UNK     0     194.459 109.827 197.234  0.00  0.00     0.051 A 
HETATM   15  C   UNK     0     189.941 111.316 200.138  0.00  0.00     0.025 A 
HETATM   16  C   UNK     0     189.982 113.934 200.641  0.00  0.00     0.005 A 
HETATM   17  C   UNK     0     192.138 109.523 198.511  0.00  0.00     0.026 A 
HETATM   18  C   UNK     0     193.310 108.922 197.714  0.00  0.00     0.011 A 
HETATM   19  C   UNK     0     189.291 112.564 200.764  0.00  0.00     0.005 A 
ENDROOT
TORSDOF 0
ENDMDL
