MODEL 1
REMARK VINA RESULT:      -5.4      0.000      0.000
REMARK  2 active torsions:
REMARK  status: ('A' for Active; 'I' for Inactive)
REMARK    1  A    between atoms: C_1  and  C_2 
REMARK    2  A    between atoms: C_1  and  C_5 
ROOT
HETATM    1  C   UNK     0     148.560 140.473 177.465  0.00  0.00     0.035 A 
HETATM    2  C   UNK     0     149.144 141.299 176.304  0.00  0.00     0.120 A 
HETATM    3  N   UNK     0     148.247 142.286 175.534  0.00  0.00    -0.296 NA
HETATM    4  C   UNK     0     147.080 140.634 177.857  0.00  0.00     0.004 A 
HETATM    5  C   UNK     0     146.183 141.621 177.088  0.00  0.00     0.024 A 
HETATM    6  C   UNK     0     146.766 142.447 175.926  0.00  0.00     0.120 A 
HETATM    7  C   UNK     0     144.703 141.782 177.480  0.00  0.00     0.002 C 
ENDROOT
BRANCH   1   8
HETATM    8  C   UNK     0     149.458 139.486 178.235  0.00  0.00     0.100 C 
BRANCH   8   9
HETATM    9  C   UNK     0     150.989 139.842 178.499  0.00  0.00     0.185 C 
HETATM   10  O   UNK     0     152.004 138.922 177.840  0.00  0.00    -0.647 OA
HETATM   11  O   UNK     0     151.384 141.029 179.358  0.00  0.00    -0.647 OA
ENDBRANCH   8   9
ENDBRANCH   1   8
TORSDOF 2
ENDMDL
MODEL 2
REMARK VINA RESULT:      -5.3      3.427      4.538
REMARK  2 active torsions:
REMARK  status: ('A' for Active; 'I' for Inactive)
REMARK    1  A    between atoms: C_1  and  C_2 
REMARK    2  A    between atoms: C_1  and  C_5 
ROOT
HETATM    1  C   UNK     0     144.967 140.532 176.100  0.00  0.00     0.035 A 
HETATM    2  C   UNK     0     145.262 141.399 177.339  0.00  0.00     0.120 A 
HETATM    3  N   UNK     0     144.141 142.243 177.973  0.00  0.00    -0.296 NA
HETATM    4  C   UNK     0     143.551 140.510 175.496  0.00  0.00     0.004 A 
HETATM    5  C   UNK     0     142.430 141.354 176.130  0.00  0.00     0.024 A 
HETATM    6  C   UNK     0     142.725 142.221 177.369  0.00  0.00     0.120 A 
HETATM    7  C   UNK     0     141.014 141.332 175.526  0.00  0.00     0.002 C 
ENDROOT
BRANCH   1   8
HETATM    8  C   UNK     0     146.088 139.688 175.467  0.00  0.00     0.100 C 
BRANCH   8   9
HETATM    9  C   UNK     0     146.864 138.607 176.344  0.00  0.00     0.185 C 
HETATM   10  O   UNK     0     146.003 137.518 176.962  0.00  0.00    -0.647 OA
HETATM   11  O   UNK     0     148.368 138.680 176.536  0.00  0.00    -0.647 OA
ENDBRANCH   8   9
ENDBRANCH   1   8
TORSDOF 2
ENDMDL
MODEL 3
REMARK VINA RESULT:      -5.1     36.153     37.813
REMARK  2 active torsions:
REMARK  status: ('A' for Active; 'I' for Inactive)
REMARK    1  A    between atoms: C_1  and  C_2 
REMARK    2  A    between atoms: C_1  and  C_5 
ROOT
HETATM    1  C   UNK     0     161.987 133.713 211.998  0.00  0.00     0.035 A 
HETATM    2  C   UNK     0     161.724 133.733 213.516  0.00  0.00     0.120 A 
HETATM    3  N   UNK     0     160.374 134.237 214.057  0.00  0.00    -0.296 NA
HETATM    4  C   UNK     0     160.899 134.197 211.023  0.00  0.00     0.004 A 
HETATM    5  C   UNK     0     159.548 134.702 211.564  0.00  0.00     0.024 A 
HETATM    6  C   UNK     0     159.286 134.722 213.082  0.00  0.00     0.120 A 
HETATM    7  C   UNK     0     158.460 135.187 210.589  0.00  0.00     0.002 C 
ENDROOT
BRANCH   1   8
HETATM    8  C   UNK     0     163.337 133.208 211.457  0.00  0.00     0.100 C 
BRANCH   8   9
HETATM    9  C   UNK     0     163.785 131.701 211.715  0.00  0.00     0.185 C 
HETATM   10  O   UNK     0     163.253 130.675 210.729  0.00  0.00    -0.647 OA
HETATM   11  O   UNK     0     164.687 131.336 212.880  0.00  0.00    -0.647 OA
ENDBRANCH   8   9
ENDBRANCH   1   8
TORSDOF 2
ENDMDL
MODEL 4
REMARK VINA RESULT:      -5.1      4.081      5.514
REMARK  2 active torsions:
REMARK  status: ('A' for Active; 'I' for Inactive)
REMARK    1  A    between atoms: C_1  and  C_2 
REMARK    2  A    between atoms: C_1  and  C_5 
ROOT
HETATM    1  C   UNK     0     145.489 140.353 176.294  0.00  0.00     0.035 A 
HETATM    2  C   UNK     0     145.695 139.153 175.350  0.00  0.00     0.120 A 
HETATM    3  N   UNK     0     146.793 138.116 175.650  0.00  0.00    -0.296 NA
HETATM    4  C   UNK     0     146.381 140.515 177.537  0.00  0.00     0.004 A 
HETATM    5  C   UNK     0     147.480 139.478 177.839  0.00  0.00     0.024 A 
HETATM    6  C   UNK     0     147.686 138.278 176.895  0.00  0.00     0.120 A 
HETATM    7  C   UNK     0     148.372 139.640 179.082  0.00  0.00     0.002 C 
ENDROOT
BRANCH   1   8
HETATM    8  C   UNK     0     144.391 141.389 175.993  0.00  0.00     0.100 C 
BRANCH   8   9
HETATM    9  C   UNK     0     144.103 142.567 177.026  0.00  0.00     0.185 C 
HETATM   10  O   UNK     0     143.076 142.265 178.104  0.00  0.00    -0.647 OA
HETATM   11  O   UNK     0     144.823 143.900 176.921  0.00  0.00    -0.647 OA
ENDBRANCH   8   9
ENDBRANCH   1   8
TORSDOF 2
ENDMDL
MODEL 5
REMARK VINA RESULT:      -5.1     28.631     29.673
REMARK  2 active torsions:
REMARK  status: ('A' for Active; 'I' for Inactive)
REMARK    1  A    between atoms: C_1  and  C_2 
REMARK    2  A    between atoms: C_1  and  C_5 
ROOT
HETATM    1  C   UNK     0     167.580 138.164 200.362  0.00  0.00     0.035 A 
HETATM    2  C   UNK     0     167.147 137.611 201.733  0.00  0.00     0.120 A 
HETATM    3  N   UNK     0     166.905 136.102 201.914  0.00  0.00    -0.296 NA
HETATM    4  C   UNK     0     167.770 137.206 199.172  0.00  0.00     0.004 A 
HETATM    5  C   UNK     0     167.528 135.695 199.352  0.00  0.00     0.024 A 
HETATM    6  C   UNK     0     167.096 135.143 200.723  0.00  0.00     0.120 A 
HETATM    7  C   UNK     0     167.719 134.738 198.162  0.00  0.00     0.002 C 
ENDROOT
BRANCH   1   8
HETATM    8  C   UNK     0     167.822 139.674 200.182  0.00  0.00     0.100 C 
BRANCH   8   9
HETATM    9  C   UNK     0     167.013 140.483 199.073  0.00  0.00     0.185 C 
HETATM   10  O   UNK     0     167.517 141.886 198.780  0.00  0.00    -0.647 OA
HETATM   11  O   UNK     0     165.817 139.871 198.367  0.00  0.00    -0.647 OA
ENDBRANCH   8   9
ENDBRANCH   1   8
TORSDOF 2
ENDMDL
MODEL 6
REMARK VINA RESULT:      -5.0      3.554      4.354
REMARK  2 active torsions:
REMARK  status: ('A' for Active; 'I' for Inactive)
REMARK    1  A    between atoms: C_1  and  C_2 
REMARK    2  A    between atoms: C_1  and  C_5 
ROOT
HETATM    1  C   UNK     0     145.439 140.021 175.764  0.00  0.00     0.035 A 
HETATM    2  C   UNK     0     145.371 138.736 174.916  0.00  0.00     0.120 A 
HETATM    3  N   UNK     0     144.034 138.291 174.297  0.00  0.00    -0.296 NA
HETATM    4  C   UNK     0     144.168 140.859 175.993  0.00  0.00     0.004 A 
HETATM    5  C   UNK     0     142.830 140.414 175.375  0.00  0.00     0.024 A 
HETATM    6  C   UNK     0     142.762 139.130 174.526  0.00  0.00     0.120 A 
HETATM    7  C   UNK     0     141.559 141.253 175.604  0.00  0.00     0.002 C 
ENDROOT
BRANCH   1   8
HETATM    8  C   UNK     0     146.778 140.465 176.382  0.00  0.00     0.100 C 
BRANCH   8   9
HETATM    9  C   UNK     0     148.124 139.707 175.994  0.00  0.00     0.185 C 
HETATM   10  O   UNK     0     148.841 140.226 174.759  0.00  0.00    -0.647 OA
HETATM   11  O   UNK     0     148.640 138.544 176.821  0.00  0.00    -0.647 OA
ENDBRANCH   8   9
ENDBRANCH   1   8
TORSDOF 2
ENDMDL
MODEL 7
REMARK VINA RESULT:      -4.9     28.600     29.599
REMARK  2 active torsions:
REMARK  status: ('A' for Active; 'I' for Inactive)
REMARK    1  A    between atoms: C_1  and  C_2 
REMARK    2  A    between atoms: C_1  and  C_5 
ROOT
HETATM    1  C   UNK     0     172.786 149.091 163.156  0.00  0.00     0.035 A 
HETATM    2  C   UNK     0     171.987 147.782 163.006  0.00  0.00     0.120 A 
HETATM    3  N   UNK     0     170.930 147.648 161.894  0.00  0.00    -0.296 NA
HETATM    4  C   UNK     0     172.528 150.264 162.194  0.00  0.00     0.004 A 
HETATM    5  C   UNK     0     171.471 150.130 161.081  0.00  0.00     0.024 A 
HETATM    6  C   UNK     0     170.672 148.822 160.931  0.00  0.00     0.120 A 
HETATM    7  C   UNK     0     171.213 151.304 160.119  0.00  0.00     0.002 C 
ENDROOT
BRANCH   1   8
HETATM    8  C   UNK     0     173.842 149.224 164.269  0.00  0.00     0.100 C 
BRANCH   8   9
HETATM    9  C   UNK     0     175.058 148.197 164.340  0.00  0.00     0.185 C 
HETATM   10  O   UNK     0     176.406 148.736 163.891  0.00  0.00    -0.647 OA
HETATM   11  O   UNK     0     174.858 146.773 164.829  0.00  0.00    -0.647 OA
ENDBRANCH   8   9
ENDBRANCH   1   8
TORSDOF 2
ENDMDL
MODEL 8
REMARK VINA RESULT:      -4.9     23.581     25.329
REMARK  2 active torsions:
REMARK  status: ('A' for Active; 'I' for Inactive)
REMARK    1  A    between atoms: C_1  and  C_2 
REMARK    2  A    between atoms: C_1  and  C_5 
ROOT
HETATM    1  C   UNK     0     136.506 153.462 159.019  0.00  0.00     0.035 A 
HETATM    2  C   UNK     0     135.985 154.096 160.322  0.00  0.00     0.120 A 
HETATM    3  N   UNK     0     136.526 153.617 161.682  0.00  0.00    -0.296 NA
HETATM    4  C   UNK     0     137.569 152.350 159.075  0.00  0.00     0.004 A 
HETATM    5  C   UNK     0     138.112 151.871 160.435  0.00  0.00     0.024 A 
HETATM    6  C   UNK     0     137.590 152.505 161.738  0.00  0.00     0.120 A 
HETATM    7  C   UNK     0     139.175 150.759 160.491  0.00  0.00     0.002 C 
ENDROOT
BRANCH   1   8
HETATM    8  C   UNK     0     135.964 153.941 157.659  0.00  0.00     0.100 C 
BRANCH   8   9
HETATM    9  C   UNK     0     136.711 153.528 156.314  0.00  0.00     0.185 C 
HETATM   10  O   UNK     0     135.922 152.641 155.365  0.00  0.00    -0.647 OA
HETATM   11  O   UNK     0     138.123 154.003 156.019  0.00  0.00    -0.647 OA
ENDBRANCH   8   9
ENDBRANCH   1   8
TORSDOF 2
ENDMDL
MODEL 9
REMARK VINA RESULT:      -4.9     57.701     58.840
REMARK  2 active torsions:
REMARK  status: ('A' for Active; 'I' for Inactive)
REMARK    1  A    between atoms: C_1  and  C_2 
REMARK    2  A    between atoms: C_1  and  C_5 
ROOT
HETATM    1  C   UNK     0     186.439 127.805 220.104  0.00  0.00     0.035 A 
HETATM    2  C   UNK     0     186.837 127.355 218.686  0.00  0.00     0.120 A 
HETATM    3  N   UNK     0     185.996 126.296 217.950  0.00  0.00    -0.296 NA
HETATM    4  C   UNK     0     185.201 127.196 220.786  0.00  0.00     0.004 A 
HETATM    5  C   UNK     0     184.360 126.136 220.051  0.00  0.00     0.024 A 
HETATM    6  C   UNK     0     184.758 125.686 218.632  0.00  0.00     0.120 A 
HETATM    7  C   UNK     0     183.122 125.526 220.732  0.00  0.00     0.002 C 
ENDROOT
BRANCH   1   8
HETATM    8  C   UNK     0     187.281 128.865 220.840  0.00  0.00     0.100 C 
BRANCH   8   9
HETATM    9  C   UNK     0     188.649 128.448 221.541  0.00  0.00     0.185 C 
HETATM   10  O   UNK     0     189.834 128.247 220.611  0.00  0.00    -0.647 OA
HETATM   11  O   UNK     0     188.741 128.270 223.046  0.00  0.00    -0.647 OA
ENDBRANCH   8   9
ENDBRANCH   1   8
TORSDOF 2
ENDMDL
MODEL 10
REMARK VINA RESULT:      -4.9     70.855     72.466
REMARK  2 active torsions:
REMARK  status: ('A' for Active; 'I' for Inactive)
REMARK    1  A    between atoms: C_1  and  C_2 
REMARK    2  A    between atoms: C_1  and  C_5 
ROOT
HETATM    1  C   UNK     0     193.353 126.102 231.430  0.00  0.00     0.035 A 
HETATM    2  C   UNK     0     193.428 125.969 229.897  0.00  0.00     0.120 A 
HETATM    3  N   UNK     0     194.719 125.462 229.230  0.00  0.00    -0.296 NA
HETATM    4  C   UNK     0     194.570 125.728 232.295  0.00  0.00     0.004 A 
HETATM    5  C   UNK     0     195.863 125.221 231.629  0.00  0.00     0.024 A 
HETATM    6  C   UNK     0     195.937 125.088 230.096  0.00  0.00     0.120 A 
HETATM    7  C   UNK     0     197.080 124.847 232.493  0.00  0.00     0.002 C 
ENDROOT
BRANCH   1   8
HETATM    8  C   UNK     0     192.060 126.608 232.097  0.00  0.00     0.100 C 
BRANCH   8   9
HETATM    9  C   UNK     0     191.426 125.805 233.318  0.00  0.00     0.185 C 
HETATM   10  O   UNK     0     192.152 125.942 234.646  0.00  0.00    -0.647 OA
HETATM   11  O   UNK     0     190.176 124.962 233.142  0.00  0.00    -0.647 OA
ENDBRANCH   8   9
ENDBRANCH   1   8
TORSDOF 2
ENDMDL
