MODEL 1
REMARK VINA RESULT:     -10.8      0.000      0.000
REMARK  3 active torsions:
REMARK  status: ('A' for Active; 'I' for Inactive)
REMARK    1  A    between atoms: C_16  and  C_21 
REMARK    2  A    between atoms: C_24  and  O_62 
REMARK    3  A    between atoms: C_34  and  O_35 
ROOT
HETATM    1  C   UNK     0     155.977 170.905 191.225  0.00  0.00     0.018 A 
HETATM    2  C   UNK     0     157.042 170.308 190.286  0.00  0.00     0.166 A 
HETATM    3  C   UNK     0     154.608 171.331 190.663  0.00  0.00     0.004 A 
HETATM    4  N   UNK     0     156.737 170.137 188.786  0.00  0.00    -0.347 N 
HETATM    5  C   UNK     0     154.303 171.160 189.164  0.00  0.00     0.024 A 
HETATM    6  C   UNK     0     155.368 170.563 188.225  0.00  0.00     0.099 A 
HETATM    7  C   UNK     0     158.412 169.882 190.847  0.00  0.00     0.281 C 
HETATM    8  O   UNK     0     159.477 169.285 189.909  0.00  0.00    -0.189 OA
HETATM    9  O   UNK     0     159.172 169.114 188.408  0.00  0.00    -0.196 OA
HETATM   10  C   UNK     0     157.803 169.540 187.848  0.00  0.00     0.265 A 
HETATM   11  C   UNK     0     157.499 169.369 186.347  0.00  0.00     0.231 A 
HETATM   12  O   UNK     0     156.129 169.795 185.786  0.00  0.00    -0.216 OA
HETATM   13  C   UNK     0     160.086 169.628 192.909  0.00  0.00     0.175 A 
HETATM   14  C   UNK     0     161.151 169.031 191.970  0.00  0.00     0.075 A 
HETATM   15  O   UNK     0     158.716 170.054 192.347  0.00  0.00    -0.336 OA
HETATM   16  C   UNK     0     161.760 169.373 194.970  0.00  0.00     0.065 A 
HETATM   17  O   UNK     0     162.825 168.776 194.031  0.00  0.00    -0.317 OA
HETATM   18  C   UNK     0     160.390 169.799 194.408  0.00  0.00    -0.008 A 
HETATM   19  C   UNK     0     162.521 168.604 192.530  0.00  0.00     0.072 A 
HETATM   20  C   UNK     0     159.326 170.396 195.348  0.00  0.00     0.030 C 
HETATM   21  O   UNK     0     159.933 168.346 185.969  0.00  0.00    -0.365 OA
HETATM   22  C   UNK     0     158.563 168.772 185.409  0.00  0.00     0.149 A 
HETATM   23  C   UNK     0     160.997 167.749 185.031  0.00  0.00     0.151 A 
HETATM   24  C   UNK     0     160.693 167.578 183.532  0.00  0.00     0.021 A 
HETATM   25  C   UNK     0     158.258 168.601 183.909  0.00  0.00     0.030 A 
HETATM   26  C   UNK     0     159.323 168.004 182.970  0.00  0.00     0.004 A 
HETATM   27  C   UNK     0     162.366 167.323 185.592  0.00  0.00     0.071 C 
HETATM   28  C   UNK     0     163.432 166.726 184.653  0.00  0.00     0.066 C 
HETATM   29  C   UNK     0     165.106 166.471 186.714  0.00  0.00     0.028 C 
HETATM   30  C   UNK     0     164.801 166.300 185.214  0.00  0.00    -0.025 C 
HETATM   31  C   UNK     0     165.866 165.703 184.276  0.00  0.00     0.028 C 
HETATM   32  C   UNK     0     156.889 169.027 183.348  0.00  0.00     0.003 C 
HETATM   33  C   UNK     0     163.586 168.007 191.591  0.00  0.00    -0.021 C 
HETATM   34  C   UNK     0     163.281 167.836 190.092  0.00  0.00     0.028 C 
HETATM   35  C   UNK     0     164.955 167.581 192.153  0.00  0.00     0.048 C 
HETATM   36  C   UNK     0     166.020 166.984 191.214  0.00  0.00    -0.012 C 
HETATM   37  C   UNK     0     165.715 166.813 189.714  0.00  0.00     0.029 C 
HETATM   38  C   UNK     0     167.390 166.558 191.775  0.00  0.00     0.148 C 
HETATM   39  C   UNK     0     168.454 165.961 190.837  0.00  0.00     0.144 A 
HETATM   40  O   UNK     0     168.150 165.790 189.336  0.00  0.00    -0.322 OA
HETATM   41  O   UNK     0     167.694 166.729 193.275  0.00  0.00    -0.189 OA
HETATM   42  C   UNK     0     169.824 165.535 191.398  0.00  0.00     0.151 A 
HETATM   43  C   UNK     0     167.254 165.264 184.805  0.00  0.00     0.030 C 
HETATM   44  C   UNK     0     168.491 164.570 183.715  0.00  0.00    -0.026 C 
HETATM   45  C   UNK     0     170.889 164.938 190.459  0.00  0.00     0.004 A 
HETATM   46  C   UNK     0     170.537 164.783 188.943  0.00  0.00     0.002 A 
HETATM   47  C   UNK     0     169.215 165.193 188.398  0.00  0.00     0.175 A 
HETATM   48  O   UNK     0     170.128 165.706 192.897  0.00  0.00    -0.188 OA
HETATM   49  C   UNK     0     169.741 164.185 184.246  0.00  0.00    -0.005 C 
HETATM   50  C   UNK     0     169.940 164.416 185.841  0.00  0.00    -0.005 C 
HETATM   51  C   UNK     0     171.005 164.254 187.152  0.00  0.00    -0.024 C 
HETATM   52  C   UNK     0     172.228 164.531 191.058  0.00  0.00     0.033 C 
HETATM   53  O   UNK     0     158.811 168.951 186.834  0.00  0.00     0.000 OA
HETATM   54  C   UNK     0     172.403 163.659 186.899  0.00  0.00     0.031 C 
ENDROOT
BRANCH  16  55
HETATM   55  C   UNK     0     162.065 169.544 196.470  0.00  0.00     0.072 A 
HETATM   56  C   UNK     0     162.740 170.832 196.976  0.00  0.00     0.007 A 
HETATM   57  C   UNK     0     163.044 171.003 198.476  0.00  0.00     0.056 A 
HETATM   58  C   UNK     0     162.674 169.886 199.470  0.00  0.00     0.127 A 
HETATM   59  C   UNK     0     161.999 168.598 198.963  0.00  0.00     0.093 A 
HETATM   60  O   UNK     0     162.979 170.057 200.969  0.00  0.00    -0.193 OA
HETATM   61  C   UNK     0     161.695 168.427 197.463  0.00  0.00     0.053 A 
BRANCH  59  62
HETATM   62  O   UNK     0     161.629 167.481 199.956  0.00  0.00    -0.331 OA
HETATM   63  C   UNK     0     160.489 167.698 200.969  0.00  0.00     0.181 C 
ENDBRANCH  59  62
ENDBRANCH  16  55
BRANCH  28  64
HETATM   64  O   UNK     0     163.127 166.555 183.153  0.00  0.00    -0.333 OA
HETATM   65  C   UNK     0     163.816 167.464 182.119  0.00  0.00     0.181 C 
ENDBRANCH  28  64
TORSDOF 3
ENDMDL
MODEL 2
REMARK VINA RESULT:     -10.6     53.300     60.398
REMARK  3 active torsions:
REMARK  status: ('A' for Active; 'I' for Inactive)
REMARK    1  A    between atoms: C_16  and  C_21 
REMARK    2  A    between atoms: C_24  and  O_62 
REMARK    3  A    between atoms: C_34  and  O_35 
ROOT
HETATM    1  C   UNK     0     190.457 133.477 225.113  0.00  0.00     0.018 A 
HETATM    2  C   UNK     0     190.082 132.686 226.380  0.00  0.00     0.166 A 
HETATM    3  C   UNK     0     191.606 132.988 224.211  0.00  0.00     0.004 A 
HETATM    4  N   UNK     0     190.856 131.405 226.745  0.00  0.00    -0.347 N 
HETATM    5  C   UNK     0     192.379 131.707 224.577  0.00  0.00     0.024 A 
HETATM    6  C   UNK     0     192.004 130.916 225.844  0.00  0.00     0.099 A 
HETATM    7  C   UNK     0     188.934 133.176 227.282  0.00  0.00     0.281 C 
HETATM    8  O   UNK     0     188.558 132.384 228.549  0.00  0.00    -0.189 OA
HETATM    9  O   UNK     0     189.332 131.103 228.915  0.00  0.00    -0.196 OA
HETATM   10  C   UNK     0     190.480 130.615 228.012  0.00  0.00     0.265 A 
HETATM   11  C   UNK     0     191.254 129.333 228.378  0.00  0.00     0.231 A 
HETATM   12  O   UNK     0     192.403 128.844 227.476  0.00  0.00    -0.216 OA
HETATM   13  C   UNK     0     187.011 134.946 227.818  0.00  0.00     0.175 A 
HETATM   14  C   UNK     0     186.636 134.155 229.085  0.00  0.00     0.075 A 
HETATM   15  O   UNK     0     188.160 134.456 226.917  0.00  0.00    -0.336 OA
HETATM   16  C   UNK     0     185.089 136.716 228.355  0.00  0.00     0.065 A 
HETATM   17  O   UNK     0     184.714 135.924 229.622  0.00  0.00    -0.317 OA
HETATM   18  C   UNK     0     186.238 136.226 227.453  0.00  0.00    -0.008 A 
HETATM   19  C   UNK     0     185.488 134.643 229.988  0.00  0.00     0.072 A 
HETATM   20  C   UNK     0     186.612 137.018 226.186  0.00  0.00     0.030 C 
HETATM   21  O   UNK     0     189.731 129.031 230.547  0.00  0.00    -0.365 OA
HETATM   22  C   UNK     0     190.879 128.543 229.644  0.00  0.00     0.149 A 
HETATM   23  C   UNK     0     189.356 128.240 231.813  0.00  0.00     0.151 A 
HETATM   24  C   UNK     0     190.129 126.960 232.178  0.00  0.00     0.021 A 
HETATM   25  C   UNK     0     191.653 127.262 230.009  0.00  0.00     0.030 A 
HETATM   26  C   UNK     0     191.278 126.471 231.276  0.00  0.00     0.004 A 
HETATM   27  C   UNK     0     188.207 128.730 232.714  0.00  0.00     0.071 C 
HETATM   28  C   UNK     0     187.832 127.938 233.982  0.00  0.00     0.066 C 
HETATM   29  C   UNK     0     185.909 129.709 234.519  0.00  0.00     0.028 C 
HETATM   30  C   UNK     0     186.683 128.428 234.884  0.00  0.00    -0.025 C 
HETATM   31  C   UNK     0     186.308 127.636 236.151  0.00  0.00     0.028 C 
HETATM   32  C   UNK     0     192.801 126.773 229.108  0.00  0.00     0.003 C 
HETATM   33  C   UNK     0     185.113 133.852 231.254  0.00  0.00    -0.021 C 
HETATM   34  C   UNK     0     185.886 132.572 231.620  0.00  0.00     0.028 C 
HETATM   35  C   UNK     0     183.964 134.341 232.156  0.00  0.00     0.048 C 
HETATM   36  C   UNK     0     183.589 133.550 233.423  0.00  0.00    -0.012 C 
HETATM   37  C   UNK     0     184.363 132.269 233.788  0.00  0.00     0.029 C 
HETATM   38  C   UNK     0     182.440 134.040 234.325  0.00  0.00     0.148 C 
HETATM   39  C   UNK     0     182.065 133.249 235.592  0.00  0.00     0.144 A 
HETATM   40  O   UNK     0     182.839 131.968 235.957  0.00  0.00    -0.322 OA
HETATM   41  O   UNK     0     181.666 135.321 233.960  0.00  0.00    -0.189 OA
HETATM   42  C   UNK     0     180.916 133.738 236.493  0.00  0.00     0.151 A 
HETATM   43  C   UNK     0     185.159 128.099 237.080  0.00  0.00     0.030 C 
HETATM   44  C   UNK     0     184.723 127.180 238.552  0.00  0.00    -0.026 C 
HETATM   45  C   UNK     0     180.541 132.947 237.760  0.00  0.00     0.004 A 
HETATM   46  C   UNK     0     181.354 131.652 238.093  0.00  0.00     0.002 A 
HETATM   47  C   UNK     0     182.464 131.177 237.224  0.00  0.00     0.175 A 
HETATM   48  O   UNK     0     180.143 135.018 236.128  0.00  0.00    -0.188 OA
HETATM   49  C   UNK     0     183.668 127.643 239.367  0.00  0.00    -0.005 C 
HETATM   50  C   UNK     0     182.931 129.004 238.875  0.00  0.00    -0.005 C 
HETATM   51  C   UNK     0     181.708 130.130 239.216  0.00  0.00    -0.024 C 
HETATM   52  C   UNK     0     179.399 133.468 238.622  0.00  0.00     0.033 C 
HETATM   53  O   UNK     0     190.172 129.759 229.263  0.00  0.00     0.000 OA
HETATM   54  C   UNK     0     180.846 129.926 240.477  0.00  0.00     0.031 C 
ENDROOT
BRANCH  16  55
HETATM   55  C   UNK     0     184.316 137.996 227.990  0.00  0.00     0.072 A 
HETATM   56  C   UNK     0     184.561 139.296 228.779  0.00  0.00     0.007 A 
HETATM   57  C   UNK     0     183.787 140.576 228.414  0.00  0.00     0.056 A 
HETATM   58  C   UNK     0     182.768 140.558 227.259  0.00  0.00     0.127 A 
HETATM   59  C   UNK     0     182.523 139.259 226.470  0.00  0.00     0.093 A 
HETATM   60  O   UNK     0     181.995 141.838 226.895  0.00  0.00    -0.193 OA
HETATM   61  C   UNK     0     183.296 137.978 226.835  0.00  0.00     0.053 A 
BRANCH  59  62
HETATM   62  O   UNK     0     181.504 139.240 225.315  0.00  0.00    -0.331 OA
HETATM   63  C   UNK     0     181.603 138.163 224.219  0.00  0.00     0.181 C 
ENDBRANCH  59  62
ENDBRANCH  16  55
BRANCH  28  64
HETATM   64  O   UNK     0     188.606 126.657 234.347  0.00  0.00    -0.333 OA
HETATM   65  C   UNK     0     187.931 125.282 234.198  0.00  0.00     0.181 C 
ENDBRANCH  28  64
TORSDOF 3
ENDMDL
MODEL 3
REMARK VINA RESULT:     -10.5     52.706     58.874
REMARK  3 active torsions:
REMARK  status: ('A' for Active; 'I' for Inactive)
REMARK    1  A    between atoms: C_16  and  C_21 
REMARK    2  A    between atoms: C_24  and  O_62 
REMARK    3  A    between atoms: C_34  and  O_35 
ROOT
HETATM    1  C   UNK     0     179.386 138.466 233.270  0.00  0.00     0.018 A 
HETATM    2  C   UNK     0     180.540 137.901 232.421  0.00  0.00     0.166 A 
HETATM    3  C   UNK     0     178.620 139.714 232.793  0.00  0.00     0.004 A 
HETATM    4  N   UNK     0     180.928 138.584 231.096  0.00  0.00    -0.347 N 
HETATM    5  C   UNK     0     179.008 140.397 231.469  0.00  0.00     0.024 A 
HETATM    6  C   UNK     0     180.162 139.831 230.620  0.00  0.00     0.099 A 
HETATM    7  C   UNK     0     181.307 136.653 232.898  0.00  0.00     0.281 C 
HETATM    8  O   UNK     0     182.461 136.088 232.049  0.00  0.00    -0.189 OA
HETATM    9  O   UNK     0     182.849 136.770 230.723  0.00  0.00    -0.196 OA
HETATM   10  C   UNK     0     182.082 138.018 230.248  0.00  0.00     0.265 A 
HETATM   11  C   UNK     0     182.471 138.701 228.923  0.00  0.00     0.231 A 
HETATM   12  O   UNK     0     181.704 139.949 228.446  0.00  0.00    -0.216 OA
HETATM   13  C   UNK     0     181.686 134.722 234.699  0.00  0.00     0.175 A 
HETATM   14  C   UNK     0     182.840 134.156 233.850  0.00  0.00     0.075 A 
HETATM   15  O   UNK     0     180.919 135.970 234.223  0.00  0.00    -0.336 OA
HETATM   16  C   UNK     0     182.065 132.791 236.500  0.00  0.00     0.065 A 
HETATM   17  O   UNK     0     183.219 132.226 235.651  0.00  0.00    -0.317 OA
HETATM   18  C   UNK     0     181.298 134.039 236.023  0.00  0.00    -0.008 A 
HETATM   19  C   UNK     0     183.607 132.909 234.325  0.00  0.00     0.072 A 
HETATM   20  C   UNK     0     180.144 134.604 236.873  0.00  0.00     0.030 C 
HETATM   21  O   UNK     0     184.391 136.888 228.550  0.00  0.00    -0.365 OA
HETATM   22  C   UNK     0     183.624 138.136 228.075  0.00  0.00     0.149 A 
HETATM   23  C   UNK     0     185.545 136.323 227.702  0.00  0.00     0.151 A 
HETATM   24  C   UNK     0     185.932 137.006 226.377  0.00  0.00     0.021 A 
HETATM   25  C   UNK     0     184.012 138.819 226.750  0.00  0.00     0.030 A 
HETATM   26  C   UNK     0     185.166 138.254 225.901  0.00  0.00     0.004 A 
HETATM   27  C   UNK     0     186.311 135.075 228.178  0.00  0.00     0.071 C 
HETATM   28  C   UNK     0     187.466 134.510 227.329  0.00  0.00     0.066 C 
HETATM   29  C   UNK     0     187.845 132.578 229.130  0.00  0.00     0.028 C 
HETATM   30  C   UNK     0     188.233 133.261 227.805  0.00  0.00    -0.025 C 
HETATM   31  C   UNK     0     189.387 132.696 226.957  0.00  0.00     0.028 C 
HETATM   32  C   UNK     0     183.245 140.067 226.274  0.00  0.00     0.003 C 
HETATM   33  C   UNK     0     184.761 132.343 233.477  0.00  0.00    -0.021 C 
HETATM   34  C   UNK     0     185.149 133.026 232.153  0.00  0.00     0.028 C 
HETATM   35  C   UNK     0     185.528 131.095 233.953  0.00  0.00     0.048 C 
HETATM   36  C   UNK     0     186.682 130.530 233.105  0.00  0.00    -0.012 C 
HETATM   37  C   UNK     0     187.070 131.213 231.780  0.00  0.00     0.029 C 
HETATM   38  C   UNK     0     187.448 129.282 233.581  0.00  0.00     0.148 C 
HETATM   39  C   UNK     0     188.603 128.717 232.732  0.00  0.00     0.144 A 
HETATM   40  O   UNK     0     188.990 129.400 231.407  0.00  0.00    -0.322 OA
HETATM   41  O   UNK     0     187.061 128.599 234.906  0.00  0.00    -0.189 OA
HETATM   42  C   UNK     0     189.369 127.469 233.209  0.00  0.00     0.151 A 
HETATM   43  C   UNK     0     190.179 131.443 227.405  0.00  0.00     0.030 C 
HETATM   44  C   UNK     0     191.520 130.787 226.419  0.00  0.00    -0.026 C 
HETATM   45  C   UNK     0     190.523 126.903 232.360  0.00  0.00     0.004 A 
HETATM   46  C   UNK     0     190.883 127.629 231.021  0.00  0.00     0.002 A 
HETATM   47  C   UNK     0     190.144 128.835 230.559  0.00  0.00     0.175 A 
HETATM   48  O   UNK     0     188.981 126.786 234.533  0.00  0.00    -0.188 OA
HETATM   49  C   UNK     0     192.212 129.642 226.870  0.00  0.00    -0.005 C 
HETATM   50  C   UNK     0     191.708 129.015 228.281  0.00  0.00    -0.005 C 
HETATM   51  C   UNK     0     191.949 127.786 229.427  0.00  0.00    -0.024 C 
HETATM   52  C   UNK     0     191.253 125.668 232.870  0.00  0.00     0.033 C 
HETATM   53  O   UNK     0     183.226 137.520 229.334  0.00  0.00     0.000 OA
HETATM   54  C   UNK     0     193.068 126.755 229.181  0.00  0.00     0.031 C 
ENDROOT
BRANCH  16  55
HETATM   55  C   UNK     0     181.677 132.108 237.825  0.00  0.00     0.072 A 
HETATM   56  C   UNK     0     182.042 132.769 239.167  0.00  0.00     0.007 A 
HETATM   57  C   UNK     0     181.654 132.086 240.492  0.00  0.00     0.056 A 
HETATM   58  C   UNK     0     180.902 130.742 240.475  0.00  0.00     0.127 A 
HETATM   59  C   UNK     0     180.537 130.081 239.132  0.00  0.00     0.093 A 
HETATM   60  O   UNK     0     180.514 130.060 241.799  0.00  0.00    -0.193 OA
HETATM   61  C   UNK     0     180.924 130.764 237.807  0.00  0.00     0.053 A 
BRANCH  59  62
HETATM   62  O   UNK     0     179.784 128.738 239.115  0.00  0.00    -0.331 OA
HETATM   63  C   UNK     0     180.535 127.431 239.431  0.00  0.00     0.181 C 
ENDBRANCH  59  62
ENDBRANCH  16  55
BRANCH  28  64
HETATM   64  O   UNK     0     187.854 135.193 226.004  0.00  0.00    -0.333 OA
HETATM   65  C   UNK     0     189.171 135.982 225.902  0.00  0.00     0.181 C 
ENDBRANCH  28  64
TORSDOF 3
ENDMDL
MODEL 4
REMARK VINA RESULT:     -10.2      5.327     15.424
REMARK  3 active torsions:
REMARK  status: ('A' for Active; 'I' for Inactive)
REMARK    1  A    between atoms: C_16  and  C_21 
REMARK    2  A    between atoms: C_24  and  O_62 
REMARK    3  A    between atoms: C_34  and  O_35 
ROOT
HETATM    1  C   UNK     0     166.104 167.881 176.134  0.00  0.00     0.018 A 
HETATM    2  C   UNK     0     165.753 167.686 177.620  0.00  0.00     0.166 A 
HETATM    3  C   UNK     0     167.453 167.375 175.588  0.00  0.00     0.004 A 
HETATM    4  N   UNK     0     166.751 166.984 178.561  0.00  0.00    -0.347 N 
HETATM    5  C   UNK     0     168.450 166.674 176.529  0.00  0.00     0.024 A 
HETATM    6  C   UNK     0     168.098 166.479 178.016  0.00  0.00     0.099 A 
HETATM    7  C   UNK     0     164.405 168.192 178.166  0.00  0.00     0.281 C 
HETATM    8  O   UNK     0     164.053 167.996 179.653  0.00  0.00    -0.189 OA
HETATM    9  O   UNK     0     165.050 167.295 180.595  0.00  0.00    -0.196 OA
HETATM   10  C   UNK     0     166.398 166.789 180.048  0.00  0.00     0.265 A 
HETATM   11  C   UNK     0     167.396 166.088 180.990  0.00  0.00     0.231 A 
HETATM   12  O   UNK     0     168.744 165.582 180.444  0.00  0.00    -0.216 OA
HETATM   13  C   UNK     0     162.058 169.399 177.770  0.00  0.00     0.175 A 
HETATM   14  C   UNK     0     161.707 169.204 179.257  0.00  0.00     0.075 A 
HETATM   15  O   UNK     0     163.407 168.893 177.225  0.00  0.00    -0.336 OA
HETATM   16  C   UNK     0     159.713 170.606 177.375  0.00  0.00     0.065 A 
HETATM   17  O   UNK     0     159.362 170.411 178.862  0.00  0.00    -0.317 OA
HETATM   18  C   UNK     0     161.062 170.100 176.830  0.00  0.00    -0.008 A 
HETATM   19  C   UNK     0     160.359 169.709 179.804  0.00  0.00     0.072 A 
HETATM   20  C   UNK     0     161.412 170.296 175.343  0.00  0.00     0.030 C 
HETATM   21  O   UNK     0     165.697 166.398 183.022  0.00  0.00    -0.365 OA
HETATM   22  C   UNK     0     167.045 165.892 182.476  0.00  0.00     0.149 A 
HETATM   23  C   UNK     0     165.346 166.202 184.508  0.00  0.00     0.151 A 
HETATM   24  C   UNK     0     166.342 165.501 185.449  0.00  0.00     0.021 A 
HETATM   25  C   UNK     0     168.042 165.191 183.417  0.00  0.00     0.030 A 
HETATM   26  C   UNK     0     167.691 164.995 184.903  0.00  0.00     0.004 A 
HETATM   27  C   UNK     0     163.997 166.708 185.053  0.00  0.00     0.071 C 
HETATM   28  C   UNK     0     163.646 166.513 186.541  0.00  0.00     0.066 C 
HETATM   29  C   UNK     0     161.300 167.720 186.146  0.00  0.00     0.028 C 
HETATM   30  C   UNK     0     162.297 167.018 187.087  0.00  0.00    -0.025 C 
HETATM   31  C   UNK     0     161.946 166.823 188.573  0.00  0.00     0.028 C 
HETATM   32  C   UNK     0     169.390 164.685 182.871  0.00  0.00     0.003 C 
HETATM   33  C   UNK     0     160.008 169.513 181.290  0.00  0.00    -0.021 C 
HETATM   34  C   UNK     0     161.005 168.812 182.231  0.00  0.00     0.028 C 
HETATM   35  C   UNK     0     158.659 170.019 181.836  0.00  0.00     0.048 C 
HETATM   36  C   UNK     0     158.308 169.824 183.323  0.00  0.00    -0.012 C 
HETATM   37  C   UNK     0     159.306 169.122 184.264  0.00  0.00     0.029 C 
HETATM   38  C   UNK     0     156.960 170.330 183.868  0.00  0.00     0.148 C 
HETATM   39  C   UNK     0     156.608 170.134 185.355  0.00  0.00     0.144 A 
HETATM   40  O   UNK     0     157.606 169.433 186.296  0.00  0.00    -0.322 OA
HETATM   41  O   UNK     0     155.962 171.031 182.927  0.00  0.00    -0.189 OA
HETATM   42  C   UNK     0     155.260 170.640 185.900  0.00  0.00     0.151 A 
HETATM   43  C   UNK     0     160.599 167.319 189.156  0.00  0.00     0.030 C 
HETATM   44  C   UNK     0     160.191 167.092 190.883  0.00  0.00    -0.026 C 
HETATM   45  C   UNK     0     154.908 170.445 187.387  0.00  0.00     0.004 A 
HETATM   46  C   UNK     0     155.951 169.727 188.306  0.00  0.00     0.002 A 
HETATM   47  C   UNK     0     157.254 169.237 187.782  0.00  0.00     0.175 A 
HETATM   48  O   UNK     0     154.263 171.341 184.959  0.00  0.00    -0.188 OA
HETATM   49  C   UNK     0     158.950 167.562 191.367  0.00  0.00    -0.005 C 
HETATM   50  C   UNK     0     157.988 168.283 190.276  0.00  0.00    -0.005 C 
HETATM   51  C   UNK     0     156.495 169.051 190.024  0.00  0.00    -0.024 C 
HETATM   52  C   UNK     0     153.564 170.961 187.882  0.00  0.00     0.033 C 
HETATM   53  O   UNK     0     166.129 166.551 181.552  0.00  0.00     0.000 OA
HETATM   54  C   UNK     0     155.537 169.214 191.220  0.00  0.00     0.031 C 
ENDROOT
BRANCH  16  55
HETATM   55  C   UNK     0     158.716 171.308 176.434  0.00  0.00     0.072 A 
HETATM   56  C   UNK     0     158.182 172.709 176.785  0.00  0.00     0.007 A 
HETATM   57  C   UNK     0     157.184 173.410 175.844  0.00  0.00     0.056 A 
HETATM   58  C   UNK     0     156.721 172.710 174.552  0.00  0.00     0.127 A 
HETATM   59  C   UNK     0     157.255 171.309 174.201  0.00  0.00     0.093 A 
HETATM   60  O   UNK     0     155.724 173.412 173.612  0.00  0.00    -0.193 OA
HETATM   61  C   UNK     0     158.253 170.608 175.142  0.00  0.00     0.053 A 
BRANCH  59  62
HETATM   62  O   UNK     0     156.793 170.610 172.910  0.00  0.00    -0.331 OA
HETATM   63  C   UNK     0     157.825 170.211 171.839  0.00  0.00     0.181 C 
ENDBRANCH  59  62
ENDBRANCH  16  55
BRANCH  28  64
HETATM   64  O   UNK     0     164.643 165.811 187.482  0.00  0.00    -0.333 OA
HETATM   65  C   UNK     0     164.428 164.338 187.871  0.00  0.00     0.181 C 
ENDBRANCH  28  64
TORSDOF 3
ENDMDL
MODEL 5
REMARK VINA RESULT:      -9.9     15.048     21.730
REMARK  3 active torsions:
REMARK  status: ('A' for Active; 'I' for Inactive)
REMARK    1  A    between atoms: C_16  and  C_21 
REMARK    2  A    between atoms: C_24  and  O_62 
REMARK    3  A    between atoms: C_34  and  O_35 
ROOT
HETATM    1  C   UNK     0     140.504 171.037 179.221  0.00  0.00     0.018 A 
HETATM    2  C   UNK     0     141.501 171.015 180.394  0.00  0.00     0.166 A 
HETATM    3  C   UNK     0     140.256 172.344 178.446  0.00  0.00     0.004 A 
HETATM    4  N   UNK     0     142.250 172.301 180.792  0.00  0.00    -0.347 N 
HETATM    5  C   UNK     0     141.004 173.629 178.844  0.00  0.00     0.024 A 
HETATM    6  C   UNK     0     142.001 173.608 180.017  0.00  0.00     0.099 A 
HETATM    7  C   UNK     0     141.750 169.708 181.170  0.00  0.00     0.281 C 
HETATM    8  O   UNK     0     142.747 169.686 182.343  0.00  0.00    -0.189 OA
HETATM    9  O   UNK     0     143.496 170.972 182.742  0.00  0.00    -0.196 OA
HETATM   10  C   UNK     0     143.247 172.279 181.966  0.00  0.00     0.265 A 
HETATM   11  C   UNK     0     143.996 173.565 182.365  0.00  0.00     0.231 A 
HETATM   12  O   UNK     0     143.747 174.872 181.589  0.00  0.00    -0.216 OA
HETATM   13  C   UNK     0     141.250 167.114 181.548  0.00  0.00     0.175 A 
HETATM   14  C   UNK     0     142.247 167.093 182.721  0.00  0.00     0.075 A 
HETATM   15  O   UNK     0     141.001 168.422 180.772  0.00  0.00    -0.336 OA
HETATM   16  C   UNK     0     140.750 164.522 181.925  0.00  0.00     0.065 A 
HETATM   17  O   UNK     0     141.747 164.501 183.098  0.00  0.00    -0.317 OA
HETATM   18  C   UNK     0     140.501 165.829 181.150  0.00  0.00    -0.008 A 
HETATM   19  C   UNK     0     142.496 165.787 183.497  0.00  0.00     0.072 A 
HETATM   20  C   UNK     0     139.504 165.850 179.976  0.00  0.00     0.030 C 
HETATM   21  O   UNK     0     145.242 172.237 184.313  0.00  0.00    -0.365 OA
HETATM   22  C   UNK     0     144.992 173.543 183.537  0.00  0.00     0.149 A 
HETATM   23  C   UNK     0     146.238 172.216 185.486  0.00  0.00     0.151 A 
HETATM   24  C   UNK     0     146.987 173.501 185.884  0.00  0.00     0.021 A 
HETATM   25  C   UNK     0     145.741 174.829 183.935  0.00  0.00     0.030 A 
HETATM   26  C   UNK     0     146.738 174.808 185.109  0.00  0.00     0.004 A 
HETATM   27  C   UNK     0     146.487 170.908 186.262  0.00  0.00     0.071 C 
HETATM   28  C   UNK     0     147.484 170.887 187.436  0.00  0.00     0.066 C 
HETATM   29  C   UNK     0     146.984 168.293 187.813  0.00  0.00     0.028 C 
HETATM   30  C   UNK     0     147.733 169.579 188.211  0.00  0.00    -0.025 C 
HETATM   31  C   UNK     0     148.730 169.558 189.385  0.00  0.00     0.028 C 
HETATM   32  C   UNK     0     145.492 176.136 183.160  0.00  0.00     0.003 C 
HETATM   33  C   UNK     0     143.493 165.765 184.671  0.00  0.00    -0.021 C 
HETATM   34  C   UNK     0     144.242 167.050 185.069  0.00  0.00     0.028 C 
HETATM   35  C   UNK     0     143.742 164.458 185.446  0.00  0.00     0.048 C 
HETATM   36  C   UNK     0     144.739 164.436 186.620  0.00  0.00    -0.012 C 
HETATM   37  C   UNK     0     145.487 165.722 187.017  0.00  0.00     0.029 C 
HETATM   38  C   UNK     0     144.987 163.129 187.395  0.00  0.00     0.148 C 
HETATM   39  C   UNK     0     145.984 163.108 188.568  0.00  0.00     0.144 A 
HETATM   40  O   UNK     0     146.733 164.394 188.966  0.00  0.00    -0.322 OA
HETATM   41  O   UNK     0     144.239 161.843 186.997  0.00  0.00    -0.189 OA
HETATM   42  C   UNK     0     146.233 161.800 189.344  0.00  0.00     0.151 A 
HETATM   43  C   UNK     0     149.005 168.262 190.187  0.00  0.00     0.030 C 
HETATM   44  C   UNK     0     150.163 168.237 191.550  0.00  0.00    -0.026 C 
HETATM   45  C   UNK     0     147.230 161.779 190.517  0.00  0.00     0.004 A 
HETATM   46  C   UNK     0     147.968 163.108 190.887  0.00  0.00     0.002 A 
HETATM   47  C   UNK     0     147.730 164.372 190.140  0.00  0.00     0.175 A 
HETATM   48  O   UNK     0     145.485 160.515 188.946  0.00  0.00    -0.188 OA
HETATM   49  C   UNK     0     150.379 167.030 192.250  0.00  0.00    -0.005 C 
HETATM   50  C   UNK     0     149.530 165.745 191.734  0.00  0.00    -0.005 C 
HETATM   51  C   UNK     0     149.212 164.095 191.974  0.00  0.00    -0.024 C 
HETATM   52  C   UNK     0     147.444 160.464 191.255  0.00  0.00     0.033 C 
HETATM   53  O   UNK     0     144.264 172.349 183.129  0.00  0.00     0.000 OA
HETATM   54  C   UNK     0     149.949 163.358 193.109  0.00  0.00     0.031 C 
ENDROOT
BRANCH  16  55
HETATM   55  C   UNK     0     140.001 163.236 181.527  0.00  0.00     0.072 A 
HETATM   56  C   UNK     0     140.656 162.232 180.560  0.00  0.00     0.007 A 
HETATM   57  C   UNK     0     139.907 160.946 180.163  0.00  0.00     0.056 A 
HETATM   58  C   UNK     0     138.504 160.664 180.731  0.00  0.00     0.127 A 
HETATM   59  C   UNK     0     137.849 161.668 181.698  0.00  0.00     0.093 A 
HETATM   60  O   UNK     0     137.756 159.379 180.333  0.00  0.00    -0.193 OA
HETATM   61  C   UNK     0     138.598 162.954 182.096  0.00  0.00     0.053 A 
BRANCH  59  62
HETATM   62  O   UNK     0     136.447 161.387 182.267  0.00  0.00    -0.331 OA
HETATM   63  C   UNK     0     135.195 161.799 181.469  0.00  0.00     0.181 C 
ENDBRANCH  59  62
ENDBRANCH  16  55
BRANCH  28  64
HETATM   64  O   UNK     0     148.233 172.173 187.834  0.00  0.00    -0.333 OA
HETATM   65  C   UNK     0     149.733 172.318 187.520  0.00  0.00     0.181 C 
ENDBRANCH  28  64
TORSDOF 3
ENDMDL
MODEL 6
REMARK VINA RESULT:      -9.9     44.875     48.706
REMARK  3 active torsions:
REMARK  status: ('A' for Active; 'I' for Inactive)
REMARK    1  A    between atoms: C_16  and  C_21 
REMARK    2  A    between atoms: C_24  and  O_62 
REMARK    3  A    between atoms: C_34  and  O_35 
ROOT
HETATM    1  C   UNK     0     159.278 131.450 224.172  0.00  0.00     0.018 A 
HETATM    2  C   UNK     0     159.682 132.889 224.540  0.00  0.00     0.166 A 
HETATM    3  C   UNK     0     160.340 130.460 223.657  0.00  0.00     0.004 A 
HETATM    4  N   UNK     0     161.148 133.339 224.393  0.00  0.00    -0.347 N 
HETATM    5  C   UNK     0     161.804 130.910 223.509  0.00  0.00     0.024 A 
HETATM    6  C   UNK     0     162.208 132.350 223.878  0.00  0.00     0.099 A 
HETATM    7  C   UNK     0     158.621 133.879 225.056  0.00  0.00     0.281 C 
HETATM    8  O   UNK     0     159.025 135.319 225.424  0.00  0.00    -0.189 OA
HETATM    9  O   UNK     0     160.491 135.770 225.277  0.00  0.00    -0.196 OA
HETATM   10  C   UNK     0     161.551 134.779 224.762  0.00  0.00     0.265 A 
HETATM   11  C   UNK     0     163.017 135.230 224.614  0.00  0.00     0.231 A 
HETATM   12  O   UNK     0     164.079 134.240 224.099  0.00  0.00    -0.216 OA
HETATM   13  C   UNK     0     156.093 134.419 225.719  0.00  0.00     0.175 A 
HETATM   14  C   UNK     0     156.497 135.859 226.087  0.00  0.00     0.075 A 
HETATM   15  O   UNK     0     157.155 133.429 225.203  0.00  0.00    -0.336 OA
HETATM   16  C   UNK     0     153.567 134.959 226.382  0.00  0.00     0.065 A 
HETATM   17  O   UNK     0     153.971 136.399 226.750  0.00  0.00    -0.317 OA
HETATM   18  C   UNK     0     154.628 133.969 225.866  0.00  0.00    -0.008 A 
HETATM   19  C   UNK     0     155.437 136.849 226.603  0.00  0.00     0.072 A 
HETATM   20  C   UNK     0     154.223 132.530 225.498  0.00  0.00     0.030 C 
HETATM   21  O   UNK     0     162.361 137.659 225.498  0.00  0.00    -0.365 OA
HETATM   22  C   UNK     0     163.421 136.669 224.982  0.00  0.00     0.149 A 
HETATM   23  C   UNK     0     162.764 139.098 225.866  0.00  0.00     0.151 A 
HETATM   24  C   UNK     0     164.229 139.548 225.719  0.00  0.00     0.021 A 
HETATM   25  C   UNK     0     164.887 137.119 224.835  0.00  0.00     0.030 A 
HETATM   26  C   UNK     0     165.291 138.558 225.203  0.00  0.00     0.004 A 
HETATM   27  C   UNK     0     161.703 140.088 226.382  0.00  0.00     0.071 C 
HETATM   28  C   UNK     0     162.107 141.528 226.750  0.00  0.00     0.066 C 
HETATM   29  C   UNK     0     159.580 142.068 227.413  0.00  0.00     0.028 C 
HETATM   30  C   UNK     0     161.046 142.518 227.266  0.00  0.00    -0.025 C 
HETATM   31  C   UNK     0     161.450 143.958 227.634  0.00  0.00     0.028 C 
HETATM   32  C   UNK     0     165.947 136.129 224.320  0.00  0.00     0.003 C 
HETATM   33  C   UNK     0     155.841 138.289 226.971  0.00  0.00    -0.021 C 
HETATM   34  C   UNK     0     157.306 138.739 226.824  0.00  0.00     0.028 C 
HETATM   35  C   UNK     0     154.780 139.279 227.487  0.00  0.00     0.048 C 
HETATM   36  C   UNK     0     155.184 140.718 227.855  0.00  0.00    -0.012 C 
HETATM   37  C   UNK     0     156.650 141.168 227.708  0.00  0.00     0.029 C 
HETATM   38  C   UNK     0     154.122 141.708 228.371  0.00  0.00     0.148 C 
HETATM   39  C   UNK     0     154.526 143.148 228.739  0.00  0.00     0.144 A 
HETATM   40  O   UNK     0     155.992 143.598 228.591  0.00  0.00    -0.322 OA
HETATM   41  O   UNK     0     152.657 141.258 228.518  0.00  0.00    -0.189 OA
HETATM   42  C   UNK     0     153.465 144.138 229.254  0.00  0.00     0.151 A 
HETATM   43  C   UNK     0     160.409 144.980 228.156  0.00  0.00     0.030 C 
HETATM   44  C   UNK     0     160.879 146.652 228.583  0.00  0.00    -0.026 C 
HETATM   45  C   UNK     0     153.869 145.577 229.623  0.00  0.00     0.004 A 
HETATM   46  C   UNK     0     155.369 145.991 229.457  0.00  0.00     0.002 A 
HETATM   47  C   UNK     0     156.396 145.037 228.960  0.00  0.00     0.175 A 
HETATM   48  O   UNK     0     152.000 143.688 229.402  0.00  0.00    -0.188 OA
HETATM   49  C   UNK     0     159.893 147.547 229.054  0.00  0.00    -0.005 C 
HETATM   50  C   UNK     0     158.386 146.952 229.165  0.00  0.00    -0.005 C 
HETATM   51  C   UNK     0     156.778 147.295 229.587  0.00  0.00    -0.024 C 
HETATM   52  C   UNK     0     152.787 146.521 230.128  0.00  0.00     0.033 C 
HETATM   53  O   UNK     0     162.045 136.204 225.107  0.00  0.00     0.000 OA
HETATM   54  C   UNK     0     156.433 148.709 230.094  0.00  0.00     0.031 C 
ENDROOT
BRANCH  16  55
HETATM   55  C   UNK     0     152.101 134.509 226.529  0.00  0.00     0.072 A 
HETATM   56  C   UNK     0     151.618 133.881 227.849  0.00  0.00     0.007 A 
HETATM   57  C   UNK     0     150.152 133.431 227.997  0.00  0.00     0.056 A 
HETATM   58  C   UNK     0     149.170 133.609 226.824  0.00  0.00     0.127 A 
HETATM   59  C   UNK     0     149.653 134.237 225.503  0.00  0.00     0.093 A 
HETATM   60  O   UNK     0     147.705 133.159 226.972  0.00  0.00    -0.193 OA
HETATM   61  C   UNK     0     151.119 134.687 225.356  0.00  0.00     0.053 A 
BRANCH  59  62
HETATM   62  O   UNK     0     148.672 134.415 224.331  0.00  0.00    -0.331 OA
HETATM   63  C   UNK     0     148.619 133.366 223.205  0.00  0.00     0.181 C 
ENDBRANCH  59  62
ENDBRANCH  16  55
BRANCH  28  64
HETATM   64  O   UNK     0     163.573 141.978 226.603  0.00  0.00    -0.333 OA
HETATM   65  C   UNK     0     164.432 142.224 227.856  0.00  0.00     0.181 C 
ENDBRANCH  28  64
TORSDOF 3
ENDMDL
MODEL 7
REMARK VINA RESULT:      -9.8     14.111     19.187
REMARK  3 active torsions:
REMARK  status: ('A' for Active; 'I' for Inactive)
REMARK    1  A    between atoms: C_16  and  C_21 
REMARK    2  A    between atoms: C_24  and  O_62 
REMARK    3  A    between atoms: C_34  and  O_35 
ROOT
HETATM    1  C   UNK     0     142.485 173.176 180.516  0.00  0.00     0.018 A 
HETATM    2  C   UNK     0     142.664 171.849 181.275  0.00  0.00     0.166 A 
HETATM    3  C   UNK     0     141.502 173.260 179.333  0.00  0.00     0.004 A 
HETATM    4  N   UNK     0     141.860 170.605 180.852  0.00  0.00    -0.347 N 
HETATM    5  C   UNK     0     140.699 172.017 178.910  0.00  0.00     0.024 A 
HETATM    6  C   UNK     0     140.878 170.689 179.669  0.00  0.00     0.099 A 
HETATM    7  C   UNK     0     143.647 171.765 182.459  0.00  0.00     0.281 C 
HETATM    8  O   UNK     0     143.826 170.437 183.218  0.00  0.00    -0.189 OA
HETATM    9  O   UNK     0     143.022 169.193 182.795  0.00  0.00    -0.196 OA
HETATM   10  C   UNK     0     142.040 169.278 181.612  0.00  0.00     0.265 A 
HETATM   11  C   UNK     0     141.237 168.033 181.189  0.00  0.00     0.231 A 
HETATM   12  O   UNK     0     140.254 168.117 180.006  0.00  0.00    -0.216 OA
HETATM   13  C   UNK     0     145.433 172.925 184.065  0.00  0.00     0.175 A 
HETATM   14  C   UNK     0     145.612 171.597 184.825  0.00  0.00     0.075 A 
HETATM   15  O   UNK     0     144.450 173.009 182.882  0.00  0.00    -0.336 OA
HETATM   16  C   UNK     0     147.218 174.085 185.671  0.00  0.00     0.065 A 
HETATM   17  O   UNK     0     147.398 172.757 186.431  0.00  0.00    -0.317 OA
HETATM   18  C   UNK     0     146.236 174.169 184.488  0.00  0.00    -0.008 A 
HETATM   19  C   UNK     0     146.594 171.512 186.008  0.00  0.00     0.072 A 
HETATM   20  C   UNK     0     146.057 175.497 183.729  0.00  0.00     0.030 C 
HETATM   21  O   UNK     0     142.398 166.621 183.131  0.00  0.00    -0.365 OA
HETATM   22  C   UNK     0     141.416 166.706 181.948  0.00  0.00     0.149 A 
HETATM   23  C   UNK     0     142.577 165.294 183.889  0.00  0.00     0.151 A 
HETATM   24  C   UNK     0     141.774 164.051 183.466  0.00  0.00     0.021 A 
HETATM   25  C   UNK     0     140.612 165.462 181.524  0.00  0.00     0.030 A 
HETATM   26  C   UNK     0     140.792 164.134 182.283  0.00  0.00     0.004 A 
HETATM   27  C   UNK     0     143.560 165.210 185.073  0.00  0.00     0.071 C 
HETATM   28  C   UNK     0     143.739 163.882 185.832  0.00  0.00     0.066 C 
HETATM   29  C   UNK     0     145.526 165.042 187.439  0.00  0.00     0.028 C 
HETATM   30  C   UNK     0     144.722 163.798 187.016  0.00  0.00    -0.025 C 
HETATM   31  C   UNK     0     144.901 162.470 187.775  0.00  0.00     0.028 C 
HETATM   32  C   UNK     0     139.630 165.546 180.342  0.00  0.00     0.003 C 
HETATM   33  C   UNK     0     146.773 170.185 186.767  0.00  0.00    -0.021 C 
HETATM   34  C   UNK     0     145.971 168.941 186.344  0.00  0.00     0.028 C 
HETATM   35  C   UNK     0     147.756 170.101 187.950  0.00  0.00     0.048 C 
HETATM   36  C   UNK     0     147.935 168.773 188.710  0.00  0.00    -0.012 C 
HETATM   37  C   UNK     0     147.132 167.529 188.286  0.00  0.00     0.029 C 
HETATM   38  C   UNK     0     148.918 168.689 189.893  0.00  0.00     0.148 C 
HETATM   39  C   UNK     0     149.097 167.362 190.652  0.00  0.00     0.144 A 
HETATM   40  O   UNK     0     148.294 166.118 190.228  0.00  0.00    -0.322 OA
HETATM   41  O   UNK     0     149.722 169.933 190.316  0.00  0.00    -0.189 OA
HETATM   42  C   UNK     0     150.080 167.278 191.835  0.00  0.00     0.151 A 
HETATM   43  C   UNK     0     145.880 162.349 188.969  0.00  0.00     0.030 C 
HETATM   44  C   UNK     0     146.088 160.807 189.851  0.00  0.00    -0.026 C 
HETATM   45  C   UNK     0     150.259 165.950 192.594  0.00  0.00     0.004 A 
HETATM   46  C   UNK     0     149.423 164.712 192.130  0.00  0.00     0.002 A 
HETATM   47  C   UNK     0     148.473 164.790 190.988  0.00  0.00     0.175 A 
HETATM   48  O   UNK     0     150.883 168.521 192.258  0.00  0.00    -0.188 OA
HETATM   49  C   UNK     0     146.994 160.748 190.933  0.00  0.00    -0.005 C 
HETATM   50  C   UNK     0     147.780 162.126 191.281  0.00  0.00    -0.005 C 
HETATM   51  C   UNK     0     148.916 162.864 192.303  0.00  0.00    -0.024 C 
HETATM   52  C   UNK     0     151.242 165.914 193.757  0.00  0.00     0.033 C 
HETATM   53  O   UNK     0     142.157 167.906 182.317  0.00  0.00     0.000 OA
HETATM   54  C   UNK     0     149.568 162.020 193.415  0.00  0.00     0.031 C 
ENDROOT
BRANCH  16  55
HETATM   55  C   UNK     0     148.022 175.329 186.095  0.00  0.00     0.072 A 
HETATM   56  C   UNK     0     147.616 176.115 187.356  0.00  0.00     0.007 A 
HETATM   57  C   UNK     0     148.420 177.359 187.779  0.00  0.00     0.056 A 
HETATM   58  C   UNK     0     149.629 177.817 186.942  0.00  0.00     0.127 A 
HETATM   59  C   UNK     0     150.035 177.031 185.682  0.00  0.00     0.093 A 
HETATM   60  O   UNK     0     150.432 179.060 187.366  0.00  0.00    -0.193 OA
HETATM   61  C   UNK     0     149.231 175.787 185.258  0.00  0.00     0.053 A 
BRANCH  59  62
HETATM   62  O   UNK     0     151.243 177.488 184.845  0.00  0.00    -0.331 OA
HETATM   63  C   UNK     0     152.660 177.004 185.210  0.00  0.00     0.181 C 
ENDBRANCH  59  62
ENDBRANCH  16  55
BRANCH  28  64
HETATM   64  O   UNK     0     142.936 162.638 185.409  0.00  0.00    -0.333 OA
HETATM   65  C   UNK     0     141.783 162.129 186.293  0.00  0.00     0.181 C 
ENDBRANCH  28  64
TORSDOF 3
ENDMDL
MODEL 8
REMARK VINA RESULT:      -9.6      2.289      4.418
REMARK  3 active torsions:
REMARK  status: ('A' for Active; 'I' for Inactive)
REMARK    1  A    between atoms: C_16  and  C_21 
REMARK    2  A    between atoms: C_24  and  O_62 
REMARK    3  A    between atoms: C_34  and  O_35 
ROOT
HETATM    1  C   UNK     0     156.771 170.089 185.201  0.00  0.00     0.018 A 
HETATM    2  C   UNK     0     158.164 169.573 184.797  0.00  0.00     0.166 A 
HETATM    3  C   UNK     0     155.791 170.586 184.121  0.00  0.00     0.004 A 
HETATM    4  N   UNK     0     158.578 169.552 183.313  0.00  0.00    -0.347 N 
HETATM    5  C   UNK     0     156.204 170.565 182.638  0.00  0.00     0.024 A 
HETATM    6  C   UNK     0     157.598 170.048 182.234  0.00  0.00     0.099 A 
HETATM    7  C   UNK     0     159.145 169.077 185.876  0.00  0.00     0.281 C 
HETATM    8  O   UNK     0     160.538 168.560 185.472  0.00  0.00    -0.189 OA
HETATM    9  O   UNK     0     160.952 168.539 183.988  0.00  0.00    -0.196 OA
HETATM   10  C   UNK     0     159.971 169.035 182.910  0.00  0.00     0.265 A 
HETATM   11  C   UNK     0     160.385 169.015 181.426  0.00  0.00     0.231 A 
HETATM   12  O   UNK     0     159.405 169.511 180.346  0.00  0.00    -0.216 OA
HETATM   13  C   UNK     0     159.712 168.601 188.439  0.00  0.00     0.175 A 
HETATM   14  C   UNK     0     161.105 168.084 188.035  0.00  0.00     0.075 A 
HETATM   15  O   UNK     0     158.731 169.097 187.360  0.00  0.00    -0.336 OA
HETATM   16  C   UNK     0     160.278 168.125 191.002  0.00  0.00     0.065 A 
HETATM   17  O   UNK     0     161.672 167.609 190.598  0.00  0.00    -0.317 OA
HETATM   18  C   UNK     0     159.298 168.621 189.922  0.00  0.00    -0.008 A 
HETATM   19  C   UNK     0     162.086 167.588 189.114  0.00  0.00     0.072 A 
HETATM   20  C   UNK     0     157.905 169.138 190.327  0.00  0.00     0.030 C 
HETATM   21  O   UNK     0     162.758 168.002 182.100  0.00  0.00    -0.365 OA
HETATM   22  C   UNK     0     161.778 168.498 181.022  0.00  0.00     0.149 A 
HETATM   23  C   UNK     0     164.151 167.486 181.696  0.00  0.00     0.151 A 
HETATM   24  C   UNK     0     164.564 167.465 180.214  0.00  0.00     0.021 A 
HETATM   25  C   UNK     0     162.191 168.478 179.538  0.00  0.00     0.030 A 
HETATM   26  C   UNK     0     163.584 167.961 179.134  0.00  0.00     0.004 A 
HETATM   27  C   UNK     0     165.131 166.989 182.776  0.00  0.00     0.071 C 
HETATM   28  C   UNK     0     166.525 166.472 182.372  0.00  0.00     0.066 C 
HETATM   29  C   UNK     0     167.092 165.997 184.935  0.00  0.00     0.028 C 
HETATM   30  C   UNK     0     167.505 165.976 183.451  0.00  0.00    -0.025 C 
HETATM   31  C   UNK     0     168.899 165.459 183.047  0.00  0.00     0.028 C 
HETATM   32  C   UNK     0     161.211 168.974 178.460  0.00  0.00     0.003 C 
HETATM   33  C   UNK     0     163.479 167.071 188.710  0.00  0.00    -0.021 C 
HETATM   34  C   UNK     0     163.892 167.050 187.227  0.00  0.00     0.028 C 
HETATM   35  C   UNK     0     164.459 166.575 189.789  0.00  0.00     0.048 C 
HETATM   36  C   UNK     0     165.853 166.058 189.385  0.00  0.00    -0.012 C 
HETATM   37  C   UNK     0     166.266 166.038 187.901  0.00  0.00     0.029 C 
HETATM   38  C   UNK     0     166.833 165.562 190.465  0.00  0.00     0.148 C 
HETATM   39  C   UNK     0     168.226 165.045 190.060  0.00  0.00     0.144 A 
HETATM   40  O   UNK     0     168.639 165.025 188.577  0.00  0.00    -0.322 OA
HETATM   41  O   UNK     0     166.420 165.582 191.948  0.00  0.00    -0.189 OA
HETATM   42  C   UNK     0     169.206 164.549 191.140  0.00  0.00     0.151 A 
HETATM   43  C   UNK     0     169.910 164.953 184.105  0.00  0.00     0.030 C 
HETATM   44  C   UNK     0     171.528 164.353 183.636  0.00  0.00    -0.026 C 
HETATM   45  C   UNK     0     170.600 164.032 190.736  0.00  0.00     0.004 A 
HETATM   46  C   UNK     0     170.977 164.030 189.218  0.00  0.00     0.002 A 
HETATM   47  C   UNK     0     170.033 164.508 188.173  0.00  0.00     0.175 A 
HETATM   48  O   UNK     0     168.793 164.570 192.623  0.00  0.00    -0.188 OA
HETATM   49  C   UNK     0     172.415 163.902 184.639  0.00  0.00    -0.005 C 
HETATM   50  C   UNK     0     171.861 163.974 186.164  0.00  0.00    -0.005 C 
HETATM   51  C   UNK     0     172.222 163.671 187.794  0.00  0.00    -0.024 C 
HETATM   52  C   UNK     0     171.535 163.552 191.837  0.00  0.00     0.033 C 
HETATM   53  O   UNK     0     161.348 168.534 182.414  0.00  0.00     0.000 OA
HETATM   54  C   UNK     0     173.602 163.086 188.149  0.00  0.00     0.031 C 
ENDROOT
BRANCH  16  55
HETATM   55  C   UNK     0     159.865 168.146 192.485  0.00  0.00     0.072 A 
HETATM   56  C   UNK     0     158.777 167.182 192.995  0.00  0.00     0.007 A 
HETATM   57  C   UNK     0     158.364 167.203 194.479  0.00  0.00     0.056 A 
HETATM   58  C   UNK     0     159.039 168.187 195.453  0.00  0.00     0.127 A 
HETATM   59  C   UNK     0     160.127 169.150 194.943  0.00  0.00     0.093 A 
HETATM   60  O   UNK     0     158.626 168.207 196.936  0.00  0.00    -0.193 OA
HETATM   61  C   UNK     0     160.540 169.129 193.460  0.00  0.00     0.053 A 
BRANCH  59  62
HETATM   62  O   UNK     0     160.802 170.133 195.917  0.00  0.00    -0.331 OA
HETATM   63  C   UNK     0     161.935 169.647 196.840  0.00  0.00     0.181 C 
ENDBRANCH  59  62
ENDBRANCH  16  55
BRANCH  28  64
HETATM   64  O   UNK     0     166.938 166.452 180.888  0.00  0.00    -0.333 OA
HETATM   65  C   UNK     0     167.990 167.448 180.368  0.00  0.00     0.181 C 
ENDBRANCH  28  64
TORSDOF 3
ENDMDL
MODEL 9
REMARK VINA RESULT:      -9.6      8.344     13.320
REMARK  3 active torsions:
REMARK  status: ('A' for Active; 'I' for Inactive)
REMARK    1  A    between atoms: C_16  and  C_21 
REMARK    2  A    between atoms: C_24  and  O_62 
REMARK    3  A    between atoms: C_34  and  O_35 
ROOT
HETATM    1  C   UNK     0     156.706 173.020 179.850  0.00  0.00     0.018 A 
HETATM    2  C   UNK     0     157.464 172.386 178.669  0.00  0.00     0.166 A 
HETATM    3  C   UNK     0     155.637 174.099 179.590  0.00  0.00     0.004 A 
HETATM    4  N   UNK     0     157.152 172.830 177.227  0.00  0.00    -0.347 N 
HETATM    5  C   UNK     0     155.327 174.542 178.149  0.00  0.00     0.024 A 
HETATM    6  C   UNK     0     156.084 173.908 176.968  0.00  0.00     0.099 A 
HETATM    7  C   UNK     0     158.532 171.308 178.929  0.00  0.00     0.281 C 
HETATM    8  O   UNK     0     159.290 170.674 177.748  0.00  0.00    -0.189 OA
HETATM    9  O   UNK     0     158.979 171.118 176.306  0.00  0.00    -0.196 OA
HETATM   10  C   UNK     0     157.910 172.196 176.047  0.00  0.00     0.265 A 
HETATM   11  C   UNK     0     157.600 172.639 174.604  0.00  0.00     0.231 A 
HETATM   12  O   UNK     0     156.531 173.718 174.344  0.00  0.00    -0.216 OA
HETATM   13  C   UNK     0     159.912 169.786 180.631  0.00  0.00     0.175 A 
HETATM   14  C   UNK     0     160.670 169.152 179.450  0.00  0.00     0.075 A 
HETATM   15  O   UNK     0     158.844 170.864 180.371  0.00  0.00    -0.336 OA
HETATM   16  C   UNK     0     161.292 168.264 182.333  0.00  0.00     0.065 A 
HETATM   17  O   UNK     0     162.049 167.630 181.151  0.00  0.00    -0.317 OA
HETATM   18  C   UNK     0     160.223 169.342 182.072  0.00  0.00    -0.008 A 
HETATM   19  C   UNK     0     161.739 168.074 179.709  0.00  0.00     0.072 A 
HETATM   20  C   UNK     0     159.466 169.976 183.254  0.00  0.00     0.030 C 
HETATM   21  O   UNK     0     159.425 170.928 173.682  0.00  0.00    -0.365 OA
HETATM   22  C   UNK     0     158.357 172.006 173.424  0.00  0.00     0.149 A 
HETATM   23  C   UNK     0     160.182 170.294 172.502  0.00  0.00     0.151 A 
HETATM   24  C   UNK     0     159.872 170.737 171.061  0.00  0.00     0.021 A 
HETATM   25  C   UNK     0     158.046 172.450 171.982  0.00  0.00     0.030 A 
HETATM   26  C   UNK     0     158.803 171.816 170.801  0.00  0.00     0.004 A 
HETATM   27  C   UNK     0     161.251 169.216 172.762  0.00  0.00     0.071 C 
HETATM   28  C   UNK     0     162.009 168.581 171.580  0.00  0.00     0.066 C 
HETATM   29  C   UNK     0     163.389 167.059 173.282  0.00  0.00     0.028 C 
HETATM   30  C   UNK     0     163.078 167.503 171.840  0.00  0.00    -0.025 C 
HETATM   31  C   UNK     0     163.835 166.869 170.659  0.00  0.00     0.028 C 
HETATM   32  C   UNK     0     156.977 173.527 171.722  0.00  0.00     0.003 C 
HETATM   33  C   UNK     0     162.496 167.440 178.527  0.00  0.00    -0.021 C 
HETATM   34  C   UNK     0     162.185 167.883 177.086  0.00  0.00     0.028 C 
HETATM   35  C   UNK     0     163.565 166.361 178.788  0.00  0.00     0.048 C 
HETATM   36  C   UNK     0     164.322 165.727 177.606  0.00  0.00    -0.012 C 
HETATM   37  C   UNK     0     164.011 166.171 176.165  0.00  0.00     0.029 C 
HETATM   38  C   UNK     0     165.391 164.649 177.867  0.00  0.00     0.148 C 
HETATM   39  C   UNK     0     166.149 164.015 176.685  0.00  0.00     0.144 A 
HETATM   40  O   UNK     0     165.837 164.459 175.244  0.00  0.00    -0.322 OA
HETATM   41  O   UNK     0     165.702 164.205 179.308  0.00  0.00    -0.189 OA
HETATM   42  C   UNK     0     167.217 162.937 176.945  0.00  0.00     0.151 A 
HETATM   43  C   UNK     0     164.916 165.782 170.883  0.00  0.00     0.030 C 
HETATM   44  C   UNK     0     165.796 165.046 169.511  0.00  0.00    -0.026 C 
HETATM   45  C   UNK     0     167.975 162.302 175.764  0.00  0.00     0.004 A 
HETATM   46  C   UNK     0     167.626 162.784 174.317  0.00  0.00     0.002 A 
HETATM   47  C   UNK     0     166.595 163.825 174.062  0.00  0.00     0.175 A 
HETATM   48  O   UNK     0     167.528 162.493 178.386  0.00  0.00    -0.188 OA
HETATM   49  C   UNK     0     166.773 164.058 169.767  0.00  0.00    -0.005 C 
HETATM   50  C   UNK     0     167.008 163.678 171.329  0.00  0.00    -0.005 C 
HETATM   51  C   UNK     0     167.886 162.709 172.411  0.00  0.00    -0.024 C 
HETATM   52  C   UNK     0     169.023 161.241 176.069  0.00  0.00     0.033 C 
HETATM   53  O   UNK     0     158.621 171.614 174.802  0.00  0.00     0.000 OA
HETATM   54  C   UNK     0     168.933 161.731 171.845  0.00  0.00     0.031 C 
ENDROOT
BRANCH  16  55
HETATM   55  C   UNK     0     161.603 167.820 183.774  0.00  0.00     0.072 A 
HETATM   56  C   UNK     0     160.480 167.260 184.667  0.00  0.00     0.007 A 
HETATM   57  C   UNK     0     160.791 166.816 186.108  0.00  0.00     0.056 A 
HETATM   58  C   UNK     0     162.225 166.932 186.658  0.00  0.00     0.127 A 
HETATM   59  C   UNK     0     163.349 167.492 185.765  0.00  0.00     0.093 A 
HETATM   60  O   UNK     0     162.536 166.488 188.098  0.00  0.00    -0.193 OA
HETATM   61  C   UNK     0     163.037 167.936 184.324  0.00  0.00     0.053 A 
BRANCH  59  62
HETATM   62  O   UNK     0     164.782 167.608 186.314  0.00  0.00    -0.331 OA
HETATM   63  C   UNK     0     165.710 166.379 186.311  0.00  0.00     0.181 C 
ENDBRANCH  59  62
ENDBRANCH  16  55
BRANCH  28  64
HETATM   64  O   UNK     0     161.698 169.025 170.138  0.00  0.00    -0.333 OA
HETATM   65  C   UNK     0     162.724 169.861 169.352  0.00  0.00     0.181 C 
ENDBRANCH  28  64
TORSDOF 3
ENDMDL
MODEL 10
REMARK VINA RESULT:      -9.4      5.247     15.638
REMARK  3 active torsions:
REMARK  status: ('A' for Active; 'I' for Inactive)
REMARK    1  A    between atoms: C_16  and  C_21 
REMARK    2  A    between atoms: C_24  and  O_62 
REMARK    3  A    between atoms: C_34  and  O_35 
ROOT
HETATM    1  C   UNK     0     168.101 165.525 176.663  0.00  0.00     0.018 A 
HETATM    2  C   UNK     0     167.617 165.601 178.123  0.00  0.00     0.166 A 
HETATM    3  C   UNK     0     169.482 164.924 176.340  0.00  0.00     0.004 A 
HETATM    4  N   UNK     0     168.514 165.076 179.260  0.00  0.00    -0.347 N 
HETATM    5  C   UNK     0     170.379 164.400 177.476  0.00  0.00     0.024 A 
HETATM    6  C   UNK     0     169.894 164.476 178.936  0.00  0.00     0.099 A 
HETATM    7  C   UNK     0     166.236 166.201 178.446  0.00  0.00     0.281 C 
HETATM    8  O   UNK     0     165.752 166.277 179.906  0.00  0.00    -0.189 OA
HETATM    9  O   UNK     0     166.649 165.752 181.044  0.00  0.00    -0.196 OA
HETATM   10  C   UNK     0     168.029 165.152 180.719  0.00  0.00     0.265 A 
HETATM   11  C   UNK     0     168.926 164.627 181.857  0.00  0.00     0.231 A 
HETATM   12  O   UNK     0     170.307 164.027 181.534  0.00  0.00    -0.216 OA
HETATM   13  C   UNK     0     163.958 167.326 177.632  0.00  0.00     0.175 A 
HETATM   14  C   UNK     0     163.474 167.402 179.092  0.00  0.00     0.075 A 
HETATM   15  O   UNK     0     165.339 166.726 177.309  0.00  0.00    -0.336 OA
HETATM   16  C   UNK     0     161.680 168.451 176.819  0.00  0.00     0.065 A 
HETATM   17  O   UNK     0     161.196 168.526 178.279  0.00  0.00    -0.317 OA
HETATM   18  C   UNK     0     163.062 167.850 176.496  0.00  0.00    -0.008 A 
HETATM   19  C   UNK     0     162.093 168.002 179.417  0.00  0.00     0.072 A 
HETATM   20  C   UNK     0     163.545 167.775 175.036  0.00  0.00     0.030 C 
HETATM   21  O   UNK     0     167.062 165.303 183.641  0.00  0.00    -0.365 OA
HETATM   22  C   UNK     0     168.442 164.703 183.316  0.00  0.00     0.149 A 
HETATM   23  C   UNK     0     166.578 165.379 185.100  0.00  0.00     0.151 A 
HETATM   24  C   UNK     0     167.474 164.854 186.236  0.00  0.00     0.021 A 
HETATM   25  C   UNK     0     169.339 164.178 184.453  0.00  0.00     0.030 A 
HETATM   26  C   UNK     0     168.855 164.254 185.913  0.00  0.00     0.004 A 
HETATM   27  C   UNK     0     165.197 165.979 185.423  0.00  0.00     0.071 C 
HETATM   28  C   UNK     0     164.712 166.055 186.884  0.00  0.00     0.066 C 
HETATM   29  C   UNK     0     162.434 167.180 186.070  0.00  0.00     0.028 C 
HETATM   30  C   UNK     0     163.331 166.655 187.207  0.00  0.00    -0.025 C 
HETATM   31  C   UNK     0     162.847 166.731 188.667  0.00  0.00     0.028 C 
HETATM   32  C   UNK     0     170.720 163.578 184.130  0.00  0.00     0.003 C 
HETATM   33  C   UNK     0     161.609 168.077 180.877  0.00  0.00    -0.021 C 
HETATM   34  C   UNK     0     162.505 167.553 182.013  0.00  0.00     0.028 C 
HETATM   35  C   UNK     0     160.228 168.678 181.200  0.00  0.00     0.048 C 
HETATM   36  C   UNK     0     159.744 168.754 182.660  0.00  0.00    -0.012 C 
HETATM   37  C   UNK     0     160.641 168.229 183.797  0.00  0.00     0.029 C 
HETATM   38  C   UNK     0     158.363 169.354 182.983  0.00  0.00     0.148 C 
HETATM   39  C   UNK     0     157.878 169.430 184.443  0.00  0.00     0.144 A 
HETATM   40  O   UNK     0     158.775 168.905 185.580  0.00  0.00    -0.322 OA
HETATM   41  O   UNK     0     157.465 169.879 181.846  0.00  0.00    -0.189 OA
HETATM   42  C   UNK     0     156.497 170.030 184.766  0.00  0.00     0.151 A 
HETATM   43  C   UNK     0     161.464 167.328 189.029  0.00  0.00     0.030 C 
HETATM   44  C   UNK     0     160.902 167.416 190.725  0.00  0.00    -0.026 C 
HETATM   45  C   UNK     0     156.013 170.106 186.226  0.00  0.00     0.004 A 
HETATM   46  C   UNK     0     156.957 169.561 187.349  0.00  0.00     0.002 A 
HETATM   47  C   UNK     0     158.291 168.981 187.040  0.00  0.00     0.175 A 
HETATM   48  O   UNK     0     155.601 170.554 183.629  0.00  0.00    -0.188 OA
HETATM   49  C   UNK     0     159.633 167.969 191.003  0.00  0.00    -0.005 C 
HETATM   50  C   UNK     0     158.784 168.487 189.719  0.00  0.00    -0.005 C 
HETATM   51  C   UNK     0     157.335 169.202 189.201  0.00  0.00    -0.024 C 
HETATM   52  C   UNK     0     154.641 170.707 186.498  0.00  0.00     0.033 C 
HETATM   53  O   UNK     0     167.624 165.188 182.212  0.00  0.00     0.000 OA
HETATM   54  C   UNK     0     156.279 169.581 190.258  0.00  0.00     0.031 C 
ENDROOT
BRANCH  16  55
HETATM   55  C   UNK     0     160.783 168.975 175.682  0.00  0.00     0.072 A 
HETATM   56  C   UNK     0     160.204 167.996 174.644  0.00  0.00     0.007 A 
HETATM   57  C   UNK     0     159.307 168.521 173.507  0.00  0.00     0.056 A 
HETATM   58  C   UNK     0     158.989 170.025 173.408  0.00  0.00     0.127 A 
HETATM   59  C   UNK     0     159.568 171.004 174.446  0.00  0.00     0.093 A 
HETATM   60  O   UNK     0     158.093 170.549 172.272  0.00  0.00    -0.193 OA
HETATM   61  C   UNK     0     160.465 170.479 175.583  0.00  0.00     0.053 A 
BRANCH  59  62
HETATM   62  O   UNK     0     159.251 172.507 174.348  0.00  0.00    -0.331 OA
HETATM   63  C   UNK     0     157.907 173.046 174.875  0.00  0.00     0.181 C 
ENDBRANCH  59  62
ENDBRANCH  16  55
BRANCH  28  64
HETATM   64  O   UNK     0     165.609 165.530 188.021  0.00  0.00    -0.333 OA
HETATM   65  C   UNK     0     165.379 164.121 188.595  0.00  0.00     0.181 C 
ENDBRANCH  28  64
TORSDOF 3
ENDMDL
