MODEL 1
REMARK VINA RESULT:      -7.0      0.000      0.000
REMARK  2 active torsions:
REMARK  status: ('A' for Active; 'I' for Inactive)
REMARK    1  A    between atoms: S_1  and  O_7 
REMARK    2  A    between atoms: O_7  and  C_18 
ROOT
HETATM    1  O   UNK     0     185.335 127.440 221.035  0.00  0.00    -0.342 OA
HETATM    2  O   UNK     0     188.236 127.908 218.411  0.00  0.00     0.000 OA
HETATM    3  O   UNK     0     185.710 126.716 218.694  0.00  0.00    -0.329 OA
HETATM    4  O   UNK     0     187.831 129.392 222.733  0.00  0.00    -0.343 OA
HETATM    5  O   UNK     0     189.926 130.014 221.564  0.00  0.00    -0.344 OA
HETATM    6  C   UNK     0     186.702 127.971 220.592  0.00  0.00     0.202 A 
HETATM    7  C   UNK     0     187.771 128.808 221.320  0.00  0.00     0.187 A 
HETATM    8  C   UNK     0     186.934 127.522 219.138  0.00  0.00     0.185 A 
HETATM    9  C   UNK     0     189.072 129.194 220.593  0.00  0.00     0.168 A 
HETATM   10  C   UNK     0     189.305 128.744 219.139  0.00  0.00     0.024 A 
HETATM   11  C   UNK     0     184.724 126.667 219.865  0.00  0.00     0.187 A 
HETATM   12  C   UNK     0     189.160 130.137 222.884  0.00  0.00     0.186 A 
HETATM   13  C   UNK     0     187.167 127.072 217.684  0.00  0.00     0.143 A 
HETATM   14  C   UNK     0     183.753 125.831 219.009  0.00  0.00     0.061 C 
HETATM   15  C   UNK     0     183.480 126.360 220.718  0.00  0.00     0.061 C 
HETATM   16  C   UNK     0     188.786 130.510 224.330  0.00  0.00     0.061 C 
HETATM   17  C   UNK     0     190.316 130.964 223.476  0.00  0.00     0.061 C 
ENDROOT
BRANCH  13  18
HETATM   18  O   UNK     0     186.098 126.235 216.956  0.00  0.00    -0.212 OA
BRANCH  18  19
HETATM   19  S   UNK     0     186.252 125.925 215.455  0.00  0.00     0.406 S 
HETATM   20  O   UNK     0     184.809 126.402 215.208  0.00  0.00    -0.172 OA
HETATM   21  O   UNK     0     187.696 125.448 215.702  0.00  0.00    -0.172 OA
HETATM   22  N   UNK     0     186.407 125.615 213.955  0.00  0.00    -0.021 N 
ENDBRANCH  18  19
ENDBRANCH  13  18
TORSDOF 2
ENDMDL
MODEL 2
REMARK VINA RESULT:      -6.7     78.395     81.223
REMARK  2 active torsions:
REMARK  status: ('A' for Active; 'I' for Inactive)
REMARK    1  A    between atoms: S_1  and  O_7 
REMARK    2  A    between atoms: O_7  and  C_18 
ROOT
HETATM    1  O   UNK     0     138.631 152.565 161.049  0.00  0.00    -0.342 OA
HETATM    2  O   UNK     0     134.974 153.570 162.113  0.00  0.00     0.000 OA
HETATM    3  O   UNK     0     137.394 152.649 163.196  0.00  0.00    -0.329 OA
HETATM    4  O   UNK     0     136.993 153.520 157.995  0.00  0.00    -0.343 OA
HETATM    5  O   UNK     0     134.629 154.262 158.036  0.00  0.00    -0.344 OA
HETATM    6  C   UNK     0     137.211 153.057 160.755  0.00  0.00     0.202 A 
HETATM    7  C   UNK     0     136.509 153.466 159.446  0.00  0.00     0.187 A 
HETATM    8  C   UNK     0     136.443 153.109 162.088  0.00  0.00     0.185 A 
HETATM    9  C   UNK     0     135.040 153.927 159.471  0.00  0.00     0.168 A 
HETATM   10  C   UNK     0     134.272 153.979 160.806  0.00  0.00     0.024 A 
HETATM   11  C   UNK     0     138.744 152.314 162.554  0.00  0.00     0.187 A 
HETATM   12  C   UNK     0     135.833 154.011 157.124  0.00  0.00     0.186 A 
HETATM   13  C   UNK     0     135.675 153.161 163.422  0.00  0.00     0.143 A 
HETATM   14  C   UNK     0     139.307 151.939 163.938  0.00  0.00     0.061 C 
HETATM   15  C   UNK     0     140.209 151.877 162.370  0.00  0.00     0.061 C 
HETATM   16  C   UNK     0     136.727 153.907 155.875  0.00  0.00     0.061 C 
HETATM   17  C   UNK     0     135.000 154.449 155.905  0.00  0.00     0.061 C 
ENDROOT
BRANCH  13  18
HETATM   18  O   UNK     0     136.377 152.752 164.731  0.00  0.00    -0.212 OA
BRANCH  18  19
HETATM   19  S   UNK     0     135.553 152.181 165.901  0.00  0.00     0.406 S 
HETATM   20  O   UNK     0     136.588 152.733 166.899  0.00  0.00    -0.172 OA
HETATM   21  O   UNK     0     134.518 151.630 164.903  0.00  0.00    -0.172 OA
HETATM   22  N   UNK     0     134.730 151.610 167.069  0.00  0.00    -0.021 N 
ENDBRANCH  18  19
ENDBRANCH  13  18
TORSDOF 2
ENDMDL
MODEL 3
REMARK VINA RESULT:      -6.5     51.969     54.263
REMARK  2 active torsions:
REMARK  status: ('A' for Active; 'I' for Inactive)
REMARK    1  A    between atoms: S_1  and  O_7 
REMARK    2  A    between atoms: O_7  and  C_18 
ROOT
HETATM    1  O   UNK     0     149.172 149.883 186.242  0.00  0.00    -0.342 OA
HETATM    2  O   UNK     0     152.723 151.479 185.641  0.00  0.00     0.000 OA
HETATM    3  O   UNK     0     150.421 150.675 184.251  0.00  0.00    -0.329 OA
HETATM    4  O   UNK     0     150.668 150.099 189.504  0.00  0.00    -0.343 OA
HETATM    5  O   UNK     0     152.945 151.040 189.763  0.00  0.00    -0.344 OA
HETATM    6  C   UNK     0     150.532 150.403 186.716  0.00  0.00     0.202 A 
HETATM    7  C   UNK     0     151.172 150.495 188.114  0.00  0.00     0.187 A 
HETATM    8  C   UNK     0     151.307 150.894 185.480  0.00  0.00     0.185 A 
HETATM    9  C   UNK     0     152.588 151.080 188.275  0.00  0.00     0.168 A 
HETATM   10  C   UNK     0     153.363 151.572 187.038  0.00  0.00     0.024 A 
HETATM   11  C   UNK     0     149.104 150.050 184.722  0.00  0.00     0.187 A 
HETATM   12  C   UNK     0     151.761 150.435 190.521  0.00  0.00     0.186 A 
HETATM   13  C   UNK     0     152.083 151.386 184.244  0.00  0.00     0.143 A 
HETATM   14  C   UNK     0     148.599 150.023 183.267  0.00  0.00     0.061 C 
HETATM   15  C   UNK     0     147.688 149.445 184.720  0.00  0.00     0.061 C 
HETATM   16  C   UNK     0     150.866 149.905 191.657  0.00  0.00     0.061 C 
HETATM   17  C   UNK     0     152.530 150.592 191.846  0.00  0.00     0.061 C 
ENDROOT
BRANCH  13  18
HETATM   18  O   UNK     0     151.442 151.294 182.846  0.00  0.00    -0.212 OA
BRANCH  18  19
HETATM   19  S   UNK     0     152.245 151.716 181.601  0.00  0.00     0.406 S 
HETATM   20  O   UNK     0     153.255 152.451 182.502  0.00  0.00    -0.172 OA
HETATM   21  O   UNK     0     151.235 150.981 180.700  0.00  0.00    -0.172 OA
HETATM   22  N   UNK     0     153.047 152.138 180.357  0.00  0.00    -0.021 N 
ENDBRANCH  18  19
ENDBRANCH  13  18
TORSDOF 2
ENDMDL
MODEL 4
REMARK VINA RESULT:      -6.4     22.632     26.012
REMARK  2 active torsions:
REMARK  status: ('A' for Active; 'I' for Inactive)
REMARK    1  A    between atoms: S_1  and  O_7 
REMARK    2  A    between atoms: O_7  and  C_18 
ROOT
HETATM    1  O   UNK     0     189.653 111.873 199.522  0.00  0.00    -0.342 OA
HETATM    2  O   UNK     0     193.068 113.834 199.613  0.00  0.00     0.000 OA
HETATM    3  O   UNK     0     190.451 113.946 200.623  0.00  0.00    -0.329 OA
HETATM    4  O   UNK     0     191.886 109.966 197.448  0.00  0.00    -0.343 OA
HETATM    5  O   UNK     0     194.222 110.724 197.119  0.00  0.00    -0.344 OA
HETATM    6  C   UNK     0     191.120 112.076 199.134  0.00  0.00     0.202 A 
HETATM    7  C   UNK     0     192.076 111.259 198.245  0.00  0.00     0.187 A 
HETATM    8  C   UNK     0     191.616 113.363 199.817  0.00  0.00     0.185 A 
HETATM    9  C   UNK     0     193.528 111.730 198.040  0.00  0.00     0.168 A 
HETATM   10  C   UNK     0     194.024 113.018 198.724  0.00  0.00     0.024 A 
HETATM   11  C   UNK     0     189.241 113.025 200.441  0.00  0.00     0.187 A 
HETATM   12  C   UNK     0     193.209 109.635 196.754  0.00  0.00     0.186 A 
HETATM   13  C   UNK     0     192.111 114.651 200.501  0.00  0.00     0.143 A 
HETATM   14  C   UNK     0     188.407 113.944 201.354  0.00  0.00     0.061 C 
HETATM   15  C   UNK     0     187.824 112.431 200.550  0.00  0.00     0.061 C 
HETATM   16  C   UNK     0     192.571 108.376 196.139  0.00  0.00     0.061 C 
HETATM   17  C   UNK     0     194.278 108.929 195.899  0.00  0.00     0.061 C 
ENDROOT
BRANCH  13  18
HETATM   18  O   UNK     0     191.155 115.469 201.390  0.00  0.00    -0.212 OA
BRANCH  18  19
HETATM   19  S   UNK     0     191.458 116.948 201.691  0.00  0.00     0.406 S 
HETATM   20  O   UNK     0     192.769 116.843 200.889  0.00  0.00    -0.172 OA
HETATM   21  O   UNK     0     190.148 117.054 202.494  0.00  0.00    -0.172 OA
HETATM   22  N   UNK     0     191.761 118.427 201.992  0.00  0.00    -0.021 N 
ENDBRANCH  18  19
ENDBRANCH  13  18
TORSDOF 2
ENDMDL
MODEL 5
REMARK VINA RESULT:      -6.3     48.128     49.563
REMARK  2 active torsions:
REMARK  status: ('A' for Active; 'I' for Inactive)
REMARK    1  A    between atoms: S_1  and  O_7 
REMARK    2  A    between atoms: O_7  and  C_18 
ROOT
HETATM    1  O   UNK     0     156.491 159.292 197.971  0.00  0.00    -0.342 OA
HETATM    2  O   UNK     0     159.045 161.445 195.883  0.00  0.00     0.000 OA
HETATM    3  O   UNK     0     156.634 161.675 197.302  0.00  0.00    -0.329 OA
HETATM    4  O   UNK     0     159.059 156.987 196.963  0.00  0.00    -0.343 OA
HETATM    5  O   UNK     0     160.970 157.779 195.600  0.00  0.00    -0.344 OA
HETATM    6  C   UNK     0     157.768 159.473 197.146  0.00  0.00     0.202 A 
HETATM    7  C   UNK     0     158.868 158.485 196.714  0.00  0.00     0.187 A 
HETATM    8  C   UNK     0     157.857 160.953 196.730  0.00  0.00     0.185 A 
HETATM    9  C   UNK     0     160.056 158.977 195.867  0.00  0.00     0.168 A 
HETATM   10  C   UNK     0     160.145 160.458 195.452  0.00  0.00     0.024 A 
HETATM   11  C   UNK     0     155.792 160.650 198.067  0.00  0.00     0.187 A 
HETATM   12  C   UNK     0     160.355 156.551 196.276  0.00  0.00     0.186 A 
HETATM   13  C   UNK     0     157.945 162.433 196.315  0.00  0.00     0.143 A 
HETATM   14  C   UNK     0     154.775 161.751 198.420  0.00  0.00     0.061 C 
HETATM   15  C   UNK     0     154.671 160.012 198.909  0.00  0.00     0.061 C 
HETATM   16  C   UNK     0     160.130 155.109 196.766  0.00  0.00     0.061 C 
HETATM   17  C   UNK     0     161.526 155.687 195.771  0.00  0.00     0.061 C 
ENDROOT
BRANCH  13  18
HETATM   18  O   UNK     0     156.845 163.421 196.747  0.00  0.00    -0.212 OA
BRANCH  18  19
HETATM   19  S   UNK     0     157.186 164.908 196.959  0.00  0.00     0.406 S 
HETATM   20  O   UNK     0     155.835 165.307 196.336  0.00  0.00    -0.172 OA
HETATM   21  O   UNK     0     158.537 164.510 197.582  0.00  0.00    -0.172 OA
HETATM   22  N   UNK     0     157.526 166.395 197.172  0.00  0.00    -0.021 N 
ENDBRANCH  18  19
ENDBRANCH  13  18
TORSDOF 2
ENDMDL
MODEL 6
REMARK VINA RESULT:      -6.2     79.098     81.415
REMARK  2 active torsions:
REMARK  status: ('A' for Active; 'I' for Inactive)
REMARK    1  A    between atoms: S_1  and  O_7 
REMARK    2  A    between atoms: O_7  and  C_18 
ROOT
HETATM    1  O   UNK     0     136.208 166.920 168.701  0.00  0.00    -0.342 OA
HETATM    2  O   UNK     0     137.682 163.733 166.917  0.00  0.00     0.000 OA
HETATM    3  O   UNK     0     137.190 164.779 169.475  0.00  0.00    -0.329 OA
HETATM    4  O   UNK     0     135.913 167.593 165.182  0.00  0.00    -0.343 OA
HETATM    5  O   UNK     0     136.691 165.918 163.530  0.00  0.00    -0.344 OA
HETATM    6  C   UNK     0     136.589 166.103 167.463  0.00  0.00     0.202 A 
HETATM    7  C   UNK     0     136.463 166.392 165.956  0.00  0.00     0.187 A 
HETATM    8  C   UNK     0     137.199 164.774 167.944  0.00  0.00     0.185 A 
HETATM    9  C   UNK     0     136.946 165.351 164.929  0.00  0.00     0.168 A 
HETATM   10  C   UNK     0     137.556 164.021 165.410  0.00  0.00     0.024 A 
HETATM   11  C   UNK     0     136.578 166.103 169.941  0.00  0.00     0.187 A 
HETATM   12  C   UNK     0     136.054 167.301 163.686  0.00  0.00     0.186 A 
HETATM   13  C   UNK     0     137.808 163.444 168.425  0.00  0.00     0.143 A 
HETATM   14  C   UNK     0     136.770 165.673 171.408  0.00  0.00     0.061 C 
HETATM   15  C   UNK     0     136.053 167.236 170.843  0.00  0.00     0.061 C 
HETATM   16  C   UNK     0     135.426 168.669 163.361  0.00  0.00     0.061 C 
HETATM   17  C   UNK     0     135.994 167.446 162.154  0.00  0.00     0.061 C 
ENDROOT
BRANCH  13  18
HETATM   18  O   UNK     0     137.935 163.155 169.932  0.00  0.00    -0.212 OA
BRANCH  18  19
HETATM   19  S   UNK     0     137.696 161.730 170.466  0.00  0.00     0.406 S 
HETATM   20  O   UNK     0     137.422 162.302 171.870  0.00  0.00    -0.172 OA
HETATM   21  O   UNK     0     137.970 161.158 169.063  0.00  0.00    -0.172 OA
HETATM   22  N   UNK     0     137.457 160.306 170.999  0.00  0.00    -0.021 N 
ENDBRANCH  18  19
ENDBRANCH  13  18
TORSDOF 2
ENDMDL
MODEL 7
REMARK VINA RESULT:      -6.2     22.906     26.479
REMARK  2 active torsions:
REMARK  status: ('A' for Active; 'I' for Inactive)
REMARK    1  A    between atoms: S_1  and  O_7 
REMARK    2  A    between atoms: O_7  and  C_18 
ROOT
HETATM    1  O   UNK     0     194.036 114.257 197.800  0.00  0.00    -0.342 OA
HETATM    2  O   UNK     0     191.378 112.592 200.183  0.00  0.00     0.000 OA
HETATM    3  O   UNK     0     192.747 115.010 199.779  0.00  0.00    -0.329 OA
HETATM    4  O   UNK     0     193.617 110.913 196.549  0.00  0.00    -0.343 OA
HETATM    5  O   UNK     0     192.040 109.361 197.664  0.00  0.00    -0.344 OA
HETATM    6  C   UNK     0     193.159 113.090 198.261  0.00  0.00     0.202 A 
HETATM    7  C   UNK     0     192.979 111.657 197.724  0.00  0.00     0.187 A 
HETATM    8  C   UNK     0     192.358 113.557 199.490  0.00  0.00     0.185 A 
HETATM    9  C   UNK     0     191.999 110.692 198.417  0.00  0.00     0.168 A 
HETATM   10  C   UNK     0     191.199 111.160 199.647  0.00  0.00     0.024 A 
HETATM   11  C   UNK     0     193.782 115.440 198.736  0.00  0.00     0.187 A 
HETATM   12  C   UNK     0     193.038 109.496 196.511  0.00  0.00     0.186 A 
HETATM   13  C   UNK     0     191.557 114.025 200.719  0.00  0.00     0.143 A 
HETATM   14  C   UNK     0     193.853 116.835 199.385  0.00  0.00     0.061 C 
HETATM   15  C   UNK     0     194.794 116.286 197.941  0.00  0.00     0.061 C 
HETATM   16  C   UNK     0     193.905 109.176 195.279  0.00  0.00     0.061 C 
HETATM   17  C   UNK     0     192.753 108.042 196.094  0.00  0.00     0.061 C 
ENDROOT
BRANCH  13  18
HETATM   18  O   UNK     0     191.736 115.458 201.256  0.00  0.00    -0.212 OA
BRANCH  18  19
HETATM   19  S   UNK     0     191.124 115.855 202.613  0.00  0.00     0.406 S 
HETATM   20  O   UNK     0     190.125 114.688 202.503  0.00  0.00    -0.172 OA
HETATM   21  O   UNK     0     192.124 117.022 202.722  0.00  0.00    -0.172 OA
HETATM   22  N   UNK     0     190.513 116.251 203.968  0.00  0.00    -0.021 N 
ENDBRANCH  18  19
ENDBRANCH  13  18
TORSDOF 2
ENDMDL
MODEL 8
REMARK VINA RESULT:      -6.2     87.736     89.468
REMARK  2 active torsions:
REMARK  status: ('A' for Active; 'I' for Inactive)
REMARK    1  A    between atoms: S_1  and  O_7 
REMARK    2  A    between atoms: O_7  and  C_18 
ROOT
HETATM    1  O   UNK     0     144.246 180.309 160.594  0.00  0.00    -0.342 OA
HETATM    2  O   UNK     0     144.406 182.538 163.837  0.00  0.00     0.000 OA
HETATM    3  O   UNK     0     145.860 180.573 162.457  0.00  0.00    -0.329 OA
HETATM    4  O   UNK     0     141.236 182.274 160.532  0.00  0.00    -0.343 OA
HETATM    5  O   UNK     0     140.775 183.892 162.351  0.00  0.00    -0.344 OA
HETATM    6  C   UNK     0     143.690 181.368 161.550  0.00  0.00     0.202 A 
HETATM    7  C   UNK     0     142.401 182.210 161.523  0.00  0.00     0.187 A 
HETATM    8  C   UNK     0     144.693 181.532 162.707  0.00  0.00     0.185 A 
HETATM    9  C   UNK     0     142.114 183.216 162.653  0.00  0.00     0.168 A 
HETATM   10  C   UNK     0     143.117 183.380 163.811  0.00  0.00     0.024 A 
HETATM   11  C   UNK     0     145.583 179.819 161.153  0.00  0.00     0.187 A 
HETATM   12  C   UNK     0     140.233 183.311 161.042  0.00  0.00     0.186 A 
HETATM   13  C   UNK     0     145.696 181.696 163.864  0.00  0.00     0.143 A 
HETATM   14  C   UNK     0     146.909 179.052 161.317  0.00  0.00     0.061 C 
HETATM   15  C   UNK     0     145.731 178.859 159.957  0.00  0.00     0.061 C 
HETATM   16  C   UNK     0     139.331 183.037 159.825  0.00  0.00     0.061 C 
HETATM   17  C   UNK     0     138.994 184.219 161.154  0.00  0.00     0.061 C 
ENDROOT
BRANCH  13  18
HETATM   18  O   UNK     0     146.985 180.854 163.891  0.00  0.00    -0.212 OA
BRANCH  18  19
HETATM   19  S   UNK     0     147.672 180.540 165.233  0.00  0.00     0.406 S 
HETATM   20  O   UNK     0     146.923 181.713 165.892  0.00  0.00    -0.172 OA
HETATM   21  O   UNK     0     148.421 179.366 164.575  0.00  0.00    -0.172 OA
HETATM   22  N   UNK     0     148.359 180.225 166.574  0.00  0.00    -0.021 N 
ENDBRANCH  18  19
ENDBRANCH  13  18
TORSDOF 2
ENDMDL
MODEL 9
REMARK VINA RESULT:      -5.9     73.801     75.467
REMARK  2 active torsions:
REMARK  status: ('A' for Active; 'I' for Inactive)
REMARK    1  A    between atoms: S_1  and  O_7 
REMARK    2  A    between atoms: O_7  and  C_18 
ROOT
HETATM    1  O   UNK     0     140.675 172.750 182.459  0.00  0.00    -0.342 OA
HETATM    2  O   UNK     0     142.682 175.805 180.992  0.00  0.00     0.000 OA
HETATM    3  O   UNK     0     143.050 173.168 181.881  0.00  0.00    -0.329 OA
HETATM    4  O   UNK     0     138.224 175.332 181.965  0.00  0.00    -0.343 OA
HETATM    5  O   UNK     0     138.906 177.530 181.046  0.00  0.00    -0.344 OA
HETATM    6  C   UNK     0     140.783 174.179 181.922  0.00  0.00     0.202 A 
HETATM    7  C   UNK     0     139.732 175.286 181.710  0.00  0.00     0.187 A 
HETATM    8  C   UNK     0     142.257 174.440 181.563  0.00  0.00     0.185 A 
HETATM    9  C   UNK     0     140.157 176.652 181.140  0.00  0.00     0.168 A 
HETATM   10  C   UNK     0     141.632 176.911 180.781  0.00  0.00     0.024 A 
HETATM   11  C   UNK     0     142.073 172.127 182.433  0.00  0.00     0.187 A 
HETATM   12  C   UNK     0     137.714 176.716 181.555  0.00  0.00     0.186 A 
HETATM   13  C   UNK     0     143.732 174.699 181.204  0.00  0.00     0.143 A 
HETATM   14  C   UNK     0     143.232 171.124 182.588  0.00  0.00     0.061 C 
HETATM   15  C   UNK     0     141.499 170.818 183.010  0.00  0.00     0.061 C 
HETATM   16  C   UNK     0     136.285 176.309 181.960  0.00  0.00     0.061 C 
HETATM   17  C   UNK     0     136.784 177.914 181.289  0.00  0.00     0.061 C 
ENDROOT
BRANCH  13  18
HETATM   18  O   UNK     0     144.783 173.593 181.416  0.00  0.00    -0.212 OA
BRANCH  18  19
HETATM   19  S   UNK     0     146.273 173.961 181.545  0.00  0.00     0.406 S 
HETATM   20  O   UNK     0     146.120 174.983 180.404  0.00  0.00    -0.172 OA
HETATM   21  O   UNK     0     146.426 172.938 182.687  0.00  0.00    -0.172 OA
HETATM   22  N   UNK     0     147.763 174.328 181.675  0.00  0.00    -0.021 N 
ENDBRANCH  18  19
ENDBRANCH  13  18
TORSDOF 2
ENDMDL
MODEL 10
REMARK VINA RESULT:      -5.9     49.275     50.667
REMARK  2 active torsions:
REMARK  status: ('A' for Active; 'I' for Inactive)
REMARK    1  A    between atoms: S_1  and  O_7 
REMARK    2  A    between atoms: O_7  and  C_18 
ROOT
HETATM    1  O   UNK     0     157.661 163.738 196.483  0.00  0.00    -0.342 OA
HETATM    2  O   UNK     0     156.704 160.670 198.759  0.00  0.00     0.000 OA
HETATM    3  O   UNK     0     156.044 163.363 198.324  0.00  0.00    -0.329 OA
HETATM    4  O   UNK     0     159.787 161.055 195.385  0.00  0.00    -0.343 OA
HETATM    5  O   UNK     0     159.636 158.831 196.469  0.00  0.00    -0.344 OA
HETATM    6  C   UNK     0     157.802 162.284 196.942  0.00  0.00     0.202 A 
HETATM    7  C   UNK     0     158.713 161.135 196.472  0.00  0.00     0.187 A 
HETATM    8  C   UNK     0     156.797 162.051 198.086  0.00  0.00     0.185 A 
HETATM    9  C   UNK     0     158.619 159.753 197.145  0.00  0.00     0.168 A 
HETATM   10  C   UNK     0     157.614 159.521 198.289  0.00  0.00     0.024 A 
HETATM   11  C   UNK     0     156.578 164.403 197.334  0.00  0.00     0.187 A 
HETATM   12  C   UNK     0     160.358 159.634 195.383  0.00  0.00     0.186 A 
HETATM   13  C   UNK     0     155.793 161.819 199.230  0.00  0.00     0.143 A 
HETATM   14  C   UNK     0     155.606 165.449 197.912  0.00  0.00     0.061 C 
HETATM   15  C   UNK     0     156.786 165.722 196.568  0.00  0.00     0.061 C 
HETATM   16  C   UNK     0     161.307 160.018 194.233  0.00  0.00     0.061 C 
HETATM   17  C   UNK     0     161.197 158.394 195.024  0.00  0.00     0.061 C 
ENDROOT
BRANCH  13  18
HETATM   18  O   UNK     0     154.882 162.968 199.700  0.00  0.00    -0.212 OA
BRANCH  18  19
HETATM   19  S   UNK     0     154.076 162.828 201.006  0.00  0.00     0.406 S 
HETATM   20  O   UNK     0     154.170 161.294 200.899  0.00  0.00    -0.172 OA
HETATM   21  O   UNK     0     153.982 164.361 201.112  0.00  0.00    -0.172 OA
HETATM   22  N   UNK     0     153.271 162.688 202.310  0.00  0.00    -0.021 N 
ENDBRANCH  18  19
ENDBRANCH  13  18
TORSDOF 2
ENDMDL
