MODEL 1
REMARK VINA RESULT:      -7.3      0.000      0.000
REMARK  4 active torsions:
REMARK  status: ('A' for Active; 'I' for Inactive)
REMARK    1  A    between atoms: C_2  and  C_16 
REMARK    2  A    between atoms: C_16  and  C_17 
REMARK    3  A    between atoms: C_17  and  C_18 
REMARK    4  A    between atoms: C_18  and  C_19 
ROOT
HETATM    1  C   UNK     0     130.466 152.921 160.746  0.00  0.00    -0.026 A 
HETATM    2  C   UNK     0     129.335 152.139 161.446  0.00  0.00    -0.041 A 
HETATM    3  C   UNK     0     129.642 150.776 162.116  0.00  0.00     0.076 A 
HETATM    4  C   UNK     0     131.071 150.207 162.082  0.00  0.00     0.109 A 
HETATM    5  C   UNK     0     131.895 152.348 160.715  0.00  0.00     0.067 A 
HETATM    6  C   UNK     0     132.189 150.988 161.386  0.00  0.00     0.003 A 
HETATM    7  C   UNK     0     134.457 152.543 159.991  0.00  0.00    -0.030 A 
HETATM    8  C   UNK     0     134.750 151.184 160.662  0.00  0.00    -0.031 A 
HETATM    9  C   UNK     0     133.604 150.412 161.360  0.00  0.00    -0.028 A 
HETATM   10  C   UNK     0     133.885 149.056 162.032  0.00  0.00     0.026 A 
HETATM   11  C   UNK     0     135.313 148.460 162.013  0.00  0.00     0.005 A 
HETATM   12  C   UNK     0     136.460 149.231 161.315  0.00  0.00     0.005 A 
HETATM   13  C   UNK     0     136.179 150.599 160.637  0.00  0.00     0.026 A 
HETATM   14  C   UNK     0     135.593 147.104 162.686  0.00  0.00     0.000 C 
HETATM   15  O   UNK     0     131.377 148.853 162.747  0.00  0.00    -0.195 OA
HETATM   16  C   UNK     0     133.030 153.123 160.018  0.00  0.00    -0.022 A 
HETATM   17  C   UNK     0     135.590 153.318 159.295  0.00  0.00     0.030 C 
HETATM   18  O   UNK     0     131.607 153.699 160.047  0.00  0.00     0.000 OA
ENDROOT
BRANCH   2  19
HETATM   19  C   UNK     0     127.905 152.711 161.478  0.00  0.00     0.022 C 
BRANCH  19  20
HETATM   20  C   UNK     0     127.550 153.839 162.465  0.00  0.00     0.004 C 
BRANCH  20  21
HETATM   21  C   UNK     0     127.479 155.297 161.974  0.00  0.00     0.000 C 
BRANCH  21  22
HETATM   22  C   UNK     0     128.189 156.411 162.765  0.00  0.00     0.000 C 
HETATM   23  C   UNK     0     129.460 157.069 162.196  0.00  0.00     0.000 C 
ENDBRANCH  21  22
ENDBRANCH  20  21
ENDBRANCH  19  20
ENDBRANCH   2  19
TORSDOF 4
ENDMDL
MODEL 2
REMARK VINA RESULT:      -7.2     79.902     82.635
REMARK  4 active torsions:
REMARK  status: ('A' for Active; 'I' for Inactive)
REMARK    1  A    between atoms: C_2  and  C_16 
REMARK    2  A    between atoms: C_16  and  C_17 
REMARK    3  A    between atoms: C_17  and  C_18 
REMARK    4  A    between atoms: C_18  and  C_19 
ROOT
HETATM    1  C   UNK     0     202.475 187.245 183.534  0.00  0.00    -0.026 A 
HETATM    2  C   UNK     0     201.077 187.476 184.144  0.00  0.00    -0.041 A 
HETATM    3  C   UNK     0     200.792 187.043 185.604  0.00  0.00     0.076 A 
HETATM    4  C   UNK     0     201.903 186.384 186.440  0.00  0.00     0.109 A 
HETATM    5  C   UNK     0     203.584 186.586 184.375  0.00  0.00     0.067 A 
HETATM    6  C   UNK     0     203.289 186.158 185.830  0.00  0.00     0.003 A 
HETATM    7  C   UNK     0     206.087 185.692 184.621  0.00  0.00    -0.030 A 
HETATM    8  C   UNK     0     205.792 185.264 186.075  0.00  0.00    -0.031 A 
HETATM    9  C   UNK     0     204.383 185.503 186.671  0.00  0.00    -0.028 A 
HETATM   10  C   UNK     0     204.078 185.081 188.120  0.00  0.00     0.026 A 
HETATM   11  C   UNK     0     205.176 184.417 188.983  0.00  0.00     0.005 A 
HETATM   12  C   UNK     0     206.586 184.177 188.388  0.00  0.00     0.005 A 
HETATM   13  C   UNK     0     206.895 184.602 186.927  0.00  0.00     0.026 A 
HETATM   14  C   UNK     0     204.869 183.995 190.432  0.00  0.00     0.000 C 
HETATM   15  O   UNK     0     201.622 185.953 187.892  0.00  0.00    -0.195 OA
HETATM   16  C   UNK     0     204.983 186.352 183.773  0.00  0.00    -0.022 A 
HETATM   17  C   UNK     0     207.484 185.459 184.018  0.00  0.00     0.030 C 
HETATM   18  O   UNK     0     203.881 187.010 182.930  0.00  0.00     0.000 OA
ENDROOT
BRANCH   2  19
HETATM   19  C   UNK     0     199.967 188.135 183.304  0.00  0.00     0.022 C 
BRANCH  19  20
HETATM   20  C   UNK     0     199.627 187.581 181.908  0.00  0.00     0.004 C 
BRANCH  20  21
HETATM   21  C   UNK     0     200.258 188.215 180.654  0.00  0.00     0.000 C 
BRANCH  21  22
HETATM   22  C   UNK     0     200.260 187.445 179.321  0.00  0.00     0.000 C 
HETATM   23  C   UNK     0     201.587 186.934 178.729  0.00  0.00     0.000 C 
ENDBRANCH  21  22
ENDBRANCH  20  21
ENDBRANCH  19  20
ENDBRANCH   2  19
TORSDOF 4
ENDMDL
MODEL 3
REMARK VINA RESULT:      -7.0     24.336     26.643
REMARK  4 active torsions:
REMARK  status: ('A' for Active; 'I' for Inactive)
REMARK    1  A    between atoms: C_2  and  C_16 
REMARK    2  A    between atoms: C_16  and  C_17 
REMARK    3  A    between atoms: C_17  and  C_18 
REMARK    4  A    between atoms: C_18  and  C_19 
ROOT
HETATM    1  C   UNK     0     129.227 142.284 185.018  0.00  0.00    -0.026 A 
HETATM    2  C   UNK     0     128.847 142.170 183.526  0.00  0.00    -0.041 A 
HETATM    3  C   UNK     0     127.433 142.597 183.057  0.00  0.00     0.076 A 
HETATM    4  C   UNK     0     126.414 143.133 184.077  0.00  0.00     0.109 A 
HETATM    5  C   UNK     0     128.202 142.820 186.035  0.00  0.00     0.067 A 
HETATM    6  C   UNK     0     126.796 143.243 185.555  0.00  0.00     0.003 A 
HETATM    7  C   UNK     0     127.544 143.474 188.538  0.00  0.00    -0.030 A 
HETATM    8  C   UNK     0     126.139 143.897 188.058  0.00  0.00    -0.031 A 
HETATM    9  C   UNK     0     125.774 143.777 186.558  0.00  0.00    -0.028 A 
HETATM   10  C   UNK     0     124.376 144.195 186.068  0.00  0.00     0.026 A 
HETATM   11  C   UNK     0     123.332 144.737 187.073  0.00  0.00     0.005 A 
HETATM   12  C   UNK     0     123.695 144.858 188.573  0.00  0.00     0.005 A 
HETATM   13  C   UNK     0     125.104 144.436 189.069  0.00  0.00     0.026 A 
HETATM   14  C   UNK     0     121.933 145.155 186.582  0.00  0.00     0.000 C 
HETATM   15  O   UNK     0     125.009 143.558 183.611  0.00  0.00    -0.195 OA
HETATM   16  C   UNK     0     128.574 142.937 187.526  0.00  0.00    -0.022 A 
HETATM   17  C   UNK     0     127.916 143.590 190.027  0.00  0.00     0.030 C 
HETATM   18  O   UNK     0     129.599 142.401 186.515  0.00  0.00     0.000 OA
ENDROOT
BRANCH   2  19
HETATM   19  C   UNK     0     129.870 141.633 182.507  0.00  0.00     0.022 C 
BRANCH  19  20
HETATM   20  C   UNK     0     129.405 141.209 181.101  0.00  0.00     0.004 C 
BRANCH  20  21
HETATM   21  C   UNK     0     129.651 142.137 179.897  0.00  0.00     0.000 C 
BRANCH  21  22
HETATM   22  C   UNK     0     128.559 142.315 178.827  0.00  0.00     0.000 C 
HETATM   23  C   UNK     0     127.104 142.586 179.249  0.00  0.00     0.000 C 
ENDBRANCH  21  22
ENDBRANCH  20  21
ENDBRANCH  19  20
ENDBRANCH   2  19
TORSDOF 4
ENDMDL
MODEL 4
REMARK VINA RESULT:      -7.0     24.298     26.637
REMARK  4 active torsions:
REMARK  status: ('A' for Active; 'I' for Inactive)
REMARK    1  A    between atoms: C_2  and  C_16 
REMARK    2  A    between atoms: C_16  and  C_17 
REMARK    3  A    between atoms: C_17  and  C_18 
REMARK    4  A    between atoms: C_18  and  C_19 
ROOT
HETATM    1  C   UNK     0     127.089 142.323 183.655  0.00  0.00    -0.026 A 
HETATM    2  C   UNK     0     128.469 142.087 184.303  0.00  0.00    -0.041 A 
HETATM    3  C   UNK     0     128.723 142.544 185.763  0.00  0.00     0.076 A 
HETATM    4  C   UNK     0     127.599 143.228 186.560  0.00  0.00     0.109 A 
HETATM    5  C   UNK     0     125.967 143.009 184.458  0.00  0.00     0.067 A 
HETATM    6  C   UNK     0     126.232 143.459 185.912  0.00  0.00     0.003 A 
HETATM    7  C   UNK     0     123.469 143.934 184.626  0.00  0.00    -0.030 A 
HETATM    8  C   UNK     0     123.734 144.384 186.079  0.00  0.00    -0.031 A 
HETATM    9  C   UNK     0     125.125 144.141 186.714  0.00  0.00    -0.028 A 
HETATM   10  C   UNK     0     125.399 144.585 188.162  0.00  0.00     0.026 A 
HETATM   11  C   UNK     0     124.288 145.276 188.986  0.00  0.00     0.005 A 
HETATM   12  C   UNK     0     122.896 145.520 188.352  0.00  0.00     0.005 A 
HETATM   13  C   UNK     0     122.617 145.073 186.892  0.00  0.00     0.026 A 
HETATM   14  C   UNK     0     124.564 145.721 190.435  0.00  0.00     0.000 C 
HETATM   15  O   UNK     0     127.850 143.682 188.010  0.00  0.00    -0.195 OA
HETATM   16  C   UNK     0     124.586 143.247 183.817  0.00  0.00    -0.022 A 
HETATM   17  C   UNK     0     122.090 144.172 183.985  0.00  0.00     0.030 C 
HETATM   18  O   UNK     0     125.701 142.562 183.013  0.00  0.00     0.000 OA
ENDROOT
BRANCH   2  19
HETATM   19  C   UNK     0     129.592 141.401 183.503  0.00  0.00     0.022 C 
BRANCH  19  20
HETATM   20  C   UNK     0     129.974 141.929 182.107  0.00  0.00     0.004 C 
BRANCH  20  21
HETATM   21  C   UNK     0     129.237 141.407 180.859  0.00  0.00     0.000 C 
BRANCH  21  22
HETATM   22  C   UNK     0     129.394 142.135 179.512  0.00  0.00     0.000 C 
HETATM   23  C   UNK     0     128.158 142.404 178.633  0.00  0.00     0.000 C 
ENDBRANCH  21  22
ENDBRANCH  20  21
ENDBRANCH  19  20
ENDBRANCH   2  19
TORSDOF 4
ENDMDL
MODEL 5
REMARK VINA RESULT:      -7.0      2.752      4.931
REMARK  4 active torsions:
REMARK  status: ('A' for Active; 'I' for Inactive)
REMARK    1  A    between atoms: C_2  and  C_16 
REMARK    2  A    between atoms: C_16  and  C_17 
REMARK    3  A    between atoms: C_17  and  C_18 
REMARK    4  A    between atoms: C_18  and  C_19 
ROOT
HETATM    1  C   UNK     0     130.878 151.155 161.162  0.00  0.00    -0.026 A 
HETATM    2  C   UNK     0     131.266 149.794 161.777  0.00  0.00    -0.041 A 
HETATM    3  C   UNK     0     132.760 149.392 161.875  0.00  0.00     0.076 A 
HETATM    4  C   UNK     0     133.849 150.348 161.359  0.00  0.00     0.109 A 
HETATM    5  C   UNK     0     131.972 152.109 160.646  0.00  0.00     0.067 A 
HETATM    6  C   UNK     0     133.457 151.696 160.749  0.00  0.00     0.003 A 
HETATM    7  C   UNK     0     132.691 154.418 159.518  0.00  0.00    -0.030 A 
HETATM    8  C   UNK     0     134.175 154.006 159.620  0.00  0.00    -0.031 A 
HETATM    9  C   UNK     0     134.548 152.637 160.240  0.00  0.00    -0.028 A 
HETATM   10  C   UNK     0     136.025 152.216 160.348  0.00  0.00     0.026 A 
HETATM   11  C   UNK     0     137.140 153.159 159.836  0.00  0.00     0.005 A 
HETATM   12  C   UNK     0     136.768 154.528 159.216  0.00  0.00     0.005 A 
HETATM   13  C   UNK     0     135.280 154.954 159.107  0.00  0.00     0.026 A 
HETATM   14  C   UNK     0     138.617 152.737 159.944  0.00  0.00     0.000 C 
HETATM   15  O   UNK     0     135.333 149.949 161.455  0.00  0.00    -0.195 OA
HETATM   16  C   UNK     0     131.591 153.469 160.031  0.00  0.00    -0.022 A 
HETATM   17  C   UNK     0     132.309 155.777 158.903  0.00  0.00     0.030 C 
HETATM   18  O   UNK     0     130.496 152.521 160.543  0.00  0.00     0.000 OA
ENDROOT
BRANCH   2  19
HETATM   19  C   UNK     0     130.174 148.838 162.293  0.00  0.00     0.022 C 
BRANCH  19  20
HETATM   20  C   UNK     0     128.954 148.517 161.410  0.00  0.00     0.004 C 
BRANCH  20  21
HETATM   21  C   UNK     0     129.090 148.530 159.876  0.00  0.00     0.000 C 
BRANCH  21  22
HETATM   22  C   UNK     0     129.782 147.359 159.154  0.00  0.00     0.000 C 
HETATM   23  C   UNK     0     131.192 147.545 158.562  0.00  0.00     0.000 C 
ENDBRANCH  21  22
ENDBRANCH  20  21
ENDBRANCH  19  20
ENDBRANCH   2  19
TORSDOF 4
ENDMDL
MODEL 6
REMARK VINA RESULT:      -7.0     25.792     28.130
REMARK  4 active torsions:
REMARK  status: ('A' for Active; 'I' for Inactive)
REMARK    1  A    between atoms: C_2  and  C_16 
REMARK    2  A    between atoms: C_16  and  C_17 
REMARK    3  A    between atoms: C_17  and  C_18 
REMARK    4  A    between atoms: C_18  and  C_19 
ROOT
HETATM    1  C   UNK     0     128.312 142.063 186.778  0.00  0.00    -0.026 A 
HETATM    2  C   UNK     0     127.978 141.813 185.292  0.00  0.00    -0.041 A 
HETATM    3  C   UNK     0     126.672 142.391 184.689  0.00  0.00     0.076 A 
HETATM    4  C   UNK     0     125.716 143.212 185.571  0.00  0.00     0.109 A 
HETATM    5  C   UNK     0     127.351 142.885 187.657  0.00  0.00     0.067 A 
HETATM    6  C   UNK     0     126.053 143.456 187.044  0.00  0.00     0.003 A 
HETATM    7  C   UNK     0     126.712 143.962 190.014  0.00  0.00    -0.030 A 
HETATM    8  C   UNK     0     125.415 144.533 189.402  0.00  0.00    -0.031 A 
HETATM    9  C   UNK     0     125.095 144.273 187.910  0.00  0.00    -0.028 A 
HETATM   10  C   UNK     0     123.804 144.837 187.289  0.00  0.00     0.026 A 
HETATM   11  C   UNK     0     122.824 145.666 188.153  0.00  0.00     0.005 A 
HETATM   12  C   UNK     0     123.144 145.927 189.646  0.00  0.00     0.005 A 
HETATM   13  C   UNK     0     124.445 145.358 190.274  0.00  0.00     0.026 A 
HETATM   14  C   UNK     0     121.533 146.230 187.531  0.00  0.00     0.000 C 
HETATM   15  O   UNK     0     124.419 143.787 184.973  0.00  0.00    -0.195 OA
HETATM   16  C   UNK     0     127.679 143.139 189.142  0.00  0.00    -0.022 A 
HETATM   17  C   UNK     0     127.040 144.215 191.497  0.00  0.00     0.030 C 
HETATM   18  O   UNK     0     128.640 142.318 188.269  0.00  0.00     0.000 OA
ENDROOT
BRANCH   2  19
HETATM   19  C   UNK     0     128.938 140.991 184.412  0.00  0.00     0.022 C 
BRANCH  19  20
HETATM   20  C   UNK     0     130.137 141.678 183.733  0.00  0.00     0.004 C 
BRANCH  20  21
HETATM   21  C   UNK     0     130.033 142.134 182.265  0.00  0.00     0.000 C 
BRANCH  21  22
HETATM   22  C   UNK     0     129.318 141.244 181.232  0.00  0.00     0.000 C 
HETATM   23  C   UNK     0     129.386 141.596 179.734  0.00  0.00     0.000 C 
ENDBRANCH  21  22
ENDBRANCH  20  21
ENDBRANCH  19  20
ENDBRANCH   2  19
TORSDOF 4
ENDMDL
MODEL 7
REMARK VINA RESULT:      -6.8     43.255     45.589
REMARK  4 active torsions:
REMARK  status: ('A' for Active; 'I' for Inactive)
REMARK    1  A    between atoms: C_2  and  C_16 
REMARK    2  A    between atoms: C_16  and  C_17 
REMARK    3  A    between atoms: C_17  and  C_18 
REMARK    4  A    between atoms: C_18  and  C_19 
ROOT
HETATM    1  C   UNK     0     150.672 179.825 190.202  0.00  0.00    -0.026 A 
HETATM    2  C   UNK     0     151.895 180.743 190.411  0.00  0.00    -0.041 A 
HETATM    3  C   UNK     0     152.492 180.920 191.830  0.00  0.00     0.076 A 
HETATM    4  C   UNK     0     151.865 180.181 193.025  0.00  0.00     0.109 A 
HETATM    5  C   UNK     0     150.048 179.088 191.402  0.00  0.00     0.067 A 
HETATM    6  C   UNK     0     150.652 179.272 192.812  0.00  0.00     0.003 A 
HETATM    7  C   UNK     0     148.207 177.436 192.405  0.00  0.00    -0.030 A 
HETATM    8  C   UNK     0     148.811 177.620 193.814  0.00  0.00    -0.031 A 
HETATM    9  C   UNK     0     150.038 178.544 194.007  0.00  0.00    -0.028 A 
HETATM   10  C   UNK     0     150.648 178.735 195.407  0.00  0.00     0.026 A 
HETATM   11  C   UNK     0     150.037 178.004 196.626  0.00  0.00     0.005 A 
HETATM   12  C   UNK     0     148.809 177.079 196.435  0.00  0.00     0.005 A 
HETATM   13  C   UNK     0     148.193 176.886 195.024  0.00  0.00     0.026 A 
HETATM   14  C   UNK     0     150.647 178.196 198.027  0.00  0.00     0.000 C 
HETATM   15  O   UNK     0     152.457 180.356 194.436  0.00  0.00    -0.195 OA
HETATM   16  C   UNK     0     148.826 178.170 191.201  0.00  0.00    -0.022 A 
HETATM   17  C   UNK     0     146.987 176.519 192.204  0.00  0.00     0.030 C 
HETATM   18  O   UNK     0     149.446 178.904 190.002  0.00  0.00     0.000 OA
ENDROOT
BRANCH   2  19
HETATM   19  C   UNK     0     152.521 181.481 189.213  0.00  0.00     0.022 C 
BRANCH  19  20
HETATM   20  C   UNK     0     152.294 182.994 189.038  0.00  0.00     0.004 C 
BRANCH  20  21
HETATM   21  C   UNK     0     150.962 183.511 188.463  0.00  0.00     0.000 C 
BRANCH  21  22
HETATM   22  C   UNK     0     150.170 182.649 187.463  0.00  0.00     0.000 C 
HETATM   23  C   UNK     0     148.885 181.930 187.915  0.00  0.00     0.000 C 
ENDBRANCH  21  22
ENDBRANCH  20  21
ENDBRANCH  19  20
ENDBRANCH   2  19
TORSDOF 4
ENDMDL
MODEL 8
REMARK VINA RESULT:      -6.8     24.906     26.617
REMARK  4 active torsions:
REMARK  status: ('A' for Active; 'I' for Inactive)
REMARK    1  A    between atoms: C_2  and  C_16 
REMARK    2  A    between atoms: C_16  and  C_17 
REMARK    3  A    between atoms: C_17  and  C_18 
REMARK    4  A    between atoms: C_18  and  C_19 
ROOT
HETATM    1  C   UNK     0     126.449 143.877 187.431  0.00  0.00    -0.026 A 
HETATM    2  C   UNK     0     124.958 144.183 187.172  0.00  0.00    -0.041 A 
HETATM    3  C   UNK     0     124.351 143.922 185.770  0.00  0.00     0.076 A 
HETATM    4  C   UNK     0     125.234 143.359 184.643  0.00  0.00     0.109 A 
HETATM    5  C   UNK     0     127.328 143.314 186.298  0.00  0.00     0.067 A 
HETATM    6  C   UNK     0     126.711 143.058 184.905  0.00  0.00     0.003 A 
HETATM    7  C   UNK     0     129.690 142.443 185.412  0.00  0.00    -0.030 A 
HETATM    8  C   UNK     0     129.074 142.187 184.020  0.00  0.00    -0.031 A 
HETATM    9  C   UNK     0     127.577 142.500 183.777  0.00  0.00    -0.028 A 
HETATM   10  C   UNK     0     126.952 142.249 182.393  0.00  0.00     0.026 A 
HETATM   11  C   UNK     0     127.816 141.683 181.241  0.00  0.00     0.005 A 
HETATM   12  C   UNK     0     129.314 141.371 181.483  0.00  0.00     0.005 A 
HETATM   13  C   UNK     0     129.946 141.623 182.878  0.00  0.00     0.026 A 
HETATM   14  C   UNK     0     127.190 141.433 179.857  0.00  0.00     0.000 C 
HETATM   15  O   UNK     0     124.631 143.100 183.250  0.00  0.00    -0.195 OA
HETATM   16  C   UNK     0     128.817 143.006 186.549  0.00  0.00    -0.022 A 
HETATM   17  C   UNK     0     131.178 142.136 185.664  0.00  0.00     0.030 C 
HETATM   18  O   UNK     0     127.944 143.567 187.682  0.00  0.00     0.000 OA
ENDROOT
BRANCH   2  19
HETATM   19  C   UNK     0     124.077 144.746 188.303  0.00  0.00     0.022 C 
BRANCH  19  20
HETATM   20  C   UNK     0     124.688 145.688 189.357  0.00  0.00     0.004 C 
BRANCH  20  21
HETATM   21  C   UNK     0     124.903 145.192 190.799  0.00  0.00     0.000 C 
BRANCH  21  22
HETATM   22  C   UNK     0     125.756 143.939 191.063  0.00  0.00     0.000 C 
HETATM   23  C   UNK     0     127.240 144.085 191.448  0.00  0.00     0.000 C 
ENDBRANCH  21  22
ENDBRANCH  20  21
ENDBRANCH  19  20
ENDBRANCH   2  19
TORSDOF 4
ENDMDL
MODEL 9
REMARK VINA RESULT:      -6.8     41.109     42.793
REMARK  4 active torsions:
REMARK  status: ('A' for Active; 'I' for Inactive)
REMARK    1  A    between atoms: C_2  and  C_16 
REMARK    2  A    between atoms: C_16  and  C_17 
REMARK    3  A    between atoms: C_17  and  C_18 
REMARK    4  A    between atoms: C_18  and  C_19 
ROOT
HETATM    1  C   UNK     0     165.952 178.633 160.023  0.00  0.00    -0.026 A 
HETATM    2  C   UNK     0     164.439 178.925 159.935  0.00  0.00    -0.041 A 
HETATM    3  C   UNK     0     163.633 178.447 158.700  0.00  0.00     0.076 A 
HETATM    4  C   UNK     0     164.342 177.685 157.567  0.00  0.00     0.109 A 
HETATM    5  C   UNK     0     166.657 177.870 158.886  0.00  0.00     0.067 A 
HETATM    6  C   UNK     0     165.843 177.398 157.660  0.00  0.00     0.003 A 
HETATM    7  C   UNK     0     168.866 176.811 157.826  0.00  0.00    -0.030 A 
HETATM    8  C   UNK     0     168.053 176.340 156.601  0.00  0.00    -0.031 A 
HETATM    9  C   UNK     0     166.536 176.641 156.529  0.00  0.00    -0.028 A 
HETATM   10  C   UNK     0     165.715 176.176 155.312  0.00  0.00     0.026 A 
HETATM   11  C   UNK     0     166.403 175.408 154.159  0.00  0.00     0.005 A 
HETATM   12  C   UNK     0     167.920 175.106 154.230  0.00  0.00     0.005 A 
HETATM   13  C   UNK     0     168.749 175.574 155.456  0.00  0.00     0.026 A 
HETATM   14  C   UNK     0     165.581 174.943 152.942  0.00  0.00     0.000 C 
HETATM   15  O   UNK     0     163.543 177.210 156.340  0.00  0.00    -0.195 OA
HETATM   16  C   UNK     0     168.168 177.575 158.967  0.00  0.00    -0.022 A 
HETATM   17  C   UNK     0     170.375 176.516 157.908  0.00  0.00     0.030 C 
HETATM   18  O   UNK     0     167.468 178.336 160.103  0.00  0.00     0.000 OA
ENDROOT
BRANCH   2  19
HETATM   19  C   UNK     0     163.732 179.688 161.070  0.00  0.00     0.022 C 
BRANCH  19  20
HETATM   20  C   UNK     0     162.705 178.964 161.961  0.00  0.00     0.004 C 
BRANCH  20  21
HETATM   21  C   UNK     0     163.059 178.623 163.421  0.00  0.00     0.000 C 
BRANCH  21  22
HETATM   22  C   UNK     0     163.696 179.691 164.328  0.00  0.00     0.000 C 
HETATM   23  C   UNK     0     165.229 179.771 164.463  0.00  0.00     0.000 C 
ENDBRANCH  21  22
ENDBRANCH  20  21
ENDBRANCH  19  20
ENDBRANCH   2  19
TORSDOF 4
ENDMDL
MODEL 10
REMARK VINA RESULT:      -6.7     39.624     43.529
REMARK  4 active torsions:
REMARK  status: ('A' for Active; 'I' for Inactive)
REMARK    1  A    between atoms: C_2  and  C_16 
REMARK    2  A    between atoms: C_16  and  C_17 
REMARK    3  A    between atoms: C_17  and  C_18 
REMARK    4  A    between atoms: C_18  and  C_19 
ROOT
HETATM    1  C   UNK     0     168.338 177.332 158.737  0.00  0.00    -0.026 A 
HETATM    2  C   UNK     0     168.834 176.519 157.523  0.00  0.00    -0.041 A 
HETATM    3  C   UNK     0     167.848 176.157 156.384  0.00  0.00     0.076 A 
HETATM    4  C   UNK     0     166.380 176.610 156.466  0.00  0.00     0.109 A 
HETATM    5  C   UNK     0     166.867 177.783 158.815  0.00  0.00     0.067 A 
HETATM    6  C   UNK     0     165.893 177.416 157.672  0.00  0.00     0.003 A 
HETATM    7  C   UNK     0     164.892 179.042 160.094  0.00  0.00    -0.030 A 
HETATM    8  C   UNK     0     163.919 178.676 158.952  0.00  0.00    -0.031 A 
HETATM    9  C   UNK     0     164.433 177.859 157.741  0.00  0.00    -0.028 A 
HETATM   10  C   UNK     0     163.472 177.489 156.598  0.00  0.00     0.026 A 
HETATM   11  C   UNK     0     161.990 177.931 156.654  0.00  0.00     0.005 A 
HETATM   12  C   UNK     0     161.475 178.748 157.865  0.00  0.00     0.005 A 
HETATM   13  C   UNK     0     162.442 179.122 159.019  0.00  0.00     0.026 A 
HETATM   14  C   UNK     0     161.029 177.559 155.509  0.00  0.00     0.000 C 
HETATM   15  O   UNK     0     165.399 176.251 155.334  0.00  0.00    -0.195 OA
HETATM   16  C   UNK     0     166.364 178.595 160.024  0.00  0.00    -0.022 A 
HETATM   17  C   UNK     0     164.391 179.854 161.302  0.00  0.00     0.030 C 
HETATM   18  O   UNK     0     167.832 178.148 159.951  0.00  0.00     0.000 OA
ENDROOT
BRANCH   2  19
HETATM   19  C   UNK     0     170.304 176.067 157.444  0.00  0.00     0.022 C 
BRANCH  19  20
HETATM   20  C   UNK     0     170.727 174.715 158.048  0.00  0.00     0.004 C 
BRANCH  20  21
HETATM   21  C   UNK     0     170.766 174.534 159.577  0.00  0.00     0.000 C 
BRANCH  21  22
HETATM   22  C   UNK     0     172.096 174.687 160.337  0.00  0.00     0.000 C 
HETATM   23  C   UNK     0     173.043 175.855 160.004  0.00  0.00     0.000 C 
ENDBRANCH  21  22
ENDBRANCH  20  21
ENDBRANCH  19  20
ENDBRANCH   2  19
TORSDOF 4
ENDMDL
