MODEL 1
REMARK VINA RESULT:      -7.8      0.000      0.000
REMARK  9 active torsions:
REMARK  status: ('A' for Active; 'I' for Inactive)
REMARK    1  A    between atoms: C_3  and  C_21 
REMARK    2  A    between atoms: C_4  and  C_14 
REMARK    3  A    between atoms: C_7  and  N_9 
REMARK       I    between atoms: N_9  and  C_10 
REMARK    4  A    between atoms: C_10  and  C_13 
REMARK    5  A    between atoms: C_13  and  C_15 
REMARK    6  A    between atoms: C_13  and  N_20 
REMARK    7  A    between atoms: C_14  and  S_24 
REMARK    8  A    between atoms: N_20  and  O_35 
REMARK    9  A    between atoms: S_24  and  C_25 
ROOT
HETATM    1  C   UNK     0     146.970 165.538 186.012  0.00  0.00     0.308 A 
HETATM    2  N   UNK     0     148.136 166.372 186.306  0.00  0.00    -0.297 N 
HETATM    3  C   UNK     0     149.338 165.751 187.132  0.00  0.00     0.121 A 
HETATM    4  C   UNK     0     149.280 164.311 187.612  0.00  0.00    -0.002 A 
HETATM    5  C   UNK     0     148.114 163.478 187.318  0.00  0.00     0.065 A 
HETATM    6  S   UNK     0     146.945 164.040 186.529  0.00  0.00    -0.194 SA
HETATM    7  C   UNK     0     146.316 166.716 185.265  0.00  0.00     0.125 A 
HETATM    8  C   UNK     0     147.482 167.550 185.559  0.00  0.00     0.211 A 
HETATM    9  O   UNK     0     147.539 168.989 185.079  0.00  0.00    -0.170 OA
ENDROOT
BRANCH   7  10
HETATM   10  N   UNK     0     145.147 167.278 184.476  0.00  0.00    -0.217 NA
HETATM   11  C   UNK     0     145.243 167.347 182.962  0.00  0.00     0.234 C 
HETATM   12  O   UNK     0     146.446 166.879 182.273  0.00  0.00    -0.167 OA
BRANCH  11  13
HETATM   13  C   UNK     0     144.074 167.910 182.173  0.00  0.00     0.165 C 
BRANCH  13  14
HETATM   14  C   UNK     0     143.782 169.468 182.168  0.00  0.00     0.091 A 
HETATM   15  C   UNK     0     145.023 170.339 181.899  0.00  0.00     0.108 A 
HETATM   16  S   UNK     0     144.540 171.801 181.934  0.00  0.00    -0.072 SA
HETATM   17  C   UNK     0     142.961 171.856 182.231  0.00  0.00     0.456 A 
HETATM   18  N   UNK     0     142.487 170.398 182.377  0.00  0.00    -0.229 NA
HETATM   19  N   UNK     0     142.096 173.124 182.346  0.00  0.00     0.656 N 
ENDBRANCH  13  14
BRANCH  13  20
HETATM   20  N   UNK     0     143.109 166.927 181.325  0.00  0.00    -0.126 NA
BRANCH  20  21
HETATM   21  O   UNK     0     142.109 166.001 182.045  0.00  0.00    -0.234 OA
HETATM   22  C   UNK     0     141.962 166.050 183.578  0.00  0.00     0.211 C 
ENDBRANCH  20  21
ENDBRANCH  13  20
ENDBRANCH  11  13
ENDBRANCH   7  10
BRANCH   3  23
HETATM   23  C   UNK     0     150.565 166.629 187.442  0.00  0.00     0.227 C 
HETATM   24  O   UNK     0     151.923 166.480 186.691  0.00  0.00    -0.643 OA
HETATM   25  O   UNK     0     150.455 167.735 188.571  0.00  0.00    -0.643 OA
ENDBRANCH   3  23
BRANCH   4  26
HETATM   26  C   UNK     0     150.511 163.793 188.416  0.00  0.00     0.089 C 
BRANCH  26  27
HETATM   27  S   UNK     0     150.928 162.353 188.171  0.00  0.00    -0.071 SA
BRANCH  27  28
HETATM   28  C   UNK     0     151.693 161.612 189.252  0.00  0.00     0.190 A 
HETATM   29  N   UNK     0     151.583 162.048 190.725  0.00  0.00    -0.192 NA
HETATM   30  C   UNK     0     152.349 161.306 191.807  0.00  0.00     0.260 A 
HETATM   31  C   UNK     0     153.274 160.073 191.436  0.00  0.00     0.274 A 
HETATM   32  O   UNK     0     152.239 161.742 193.280  0.00  0.00    -0.165 OA
HETATM   33  N   UNK     0     153.384 159.637 189.963  0.00  0.00    -0.136 NA
HETATM   34  O   UNK     0     154.039 159.331 192.518  0.00  0.00    -0.164 OA
HETATM   35  N   UNK     0     152.569 160.435 188.861  0.00  0.00    -0.225 N 
HETATM   36  C   UNK     0     152.679 159.999 187.388  0.00  0.00     0.156 C 
ENDBRANCH  27  28
ENDBRANCH  26  27
ENDBRANCH   4  26
TORSDOF 9
ENDMDL
MODEL 2
REMARK VINA RESULT:      -7.8      2.712     12.188
REMARK  9 active torsions:
REMARK  status: ('A' for Active; 'I' for Inactive)
REMARK    1  A    between atoms: C_3  and  C_21 
REMARK    2  A    between atoms: C_4  and  C_14 
REMARK    3  A    between atoms: C_7  and  N_9 
REMARK       I    between atoms: N_9  and  C_10 
REMARK    4  A    between atoms: C_10  and  C_13 
REMARK    5  A    between atoms: C_13  and  C_15 
REMARK    6  A    between atoms: C_13  and  N_20 
REMARK    7  A    between atoms: C_14  and  S_24 
REMARK    8  A    between atoms: N_20  and  O_35 
REMARK    9  A    between atoms: S_24  and  C_25 
ROOT
HETATM    1  C   UNK     0     148.803 164.428 187.702  0.00  0.00     0.308 A 
HETATM    2  N   UNK     0     149.394 165.672 187.210  0.00  0.00    -0.297 N 
HETATM    3  C   UNK     0     148.466 166.729 186.478  0.00  0.00     0.121 A 
HETATM    4  C   UNK     0     146.984 166.454 186.291  0.00  0.00    -0.002 A 
HETATM    5  C   UNK     0     146.393 165.210 186.784  0.00  0.00     0.065 A 
HETATM    6  S   UNK     0     147.252 164.175 187.489  0.00  0.00    -0.194 SA
HETATM    7  C   UNK     0     150.180 163.982 188.228  0.00  0.00     0.125 A 
HETATM    8  C   UNK     0     150.771 165.226 187.735  0.00  0.00     0.211 A 
HETATM    9  O   UNK     0     152.253 165.501 187.922  0.00  0.00    -0.170 OA
ENDROOT
BRANCH   7  10
HETATM   10  N   UNK     0     151.039 162.947 188.933  0.00  0.00    -0.217 NA
HETATM   11  C   UNK     0     150.863 162.736 190.427  0.00  0.00     0.234 C 
HETATM   12  O   UNK     0     149.879 163.518 191.175  0.00  0.00    -0.167 OA
BRANCH  11  13
HETATM   13  C   UNK     0     151.722 161.702 191.132  0.00  0.00     0.165 C 
BRANCH  13  14
HETATM   14  C   UNK     0     151.051 160.491 191.906  0.00  0.00     0.091 A 
HETATM   15  C   UNK     0     149.832 159.885 191.187  0.00  0.00     0.108 A 
HETATM   16  S   UNK     0     149.328 158.739 192.085  0.00  0.00    -0.072 SA
HETATM   17  C   UNK     0     150.248 158.618 193.398  0.00  0.00     0.456 A 
HETATM   18  N   UNK     0     151.325 159.713 193.286  0.00  0.00    -0.229 NA
HETATM   19  N   UNK     0     150.080 157.602 194.542  0.00  0.00     0.656 N 
ENDBRANCH  13  14
BRANCH  13  20
HETATM   20  N   UNK     0     153.335 161.819 191.105  0.00  0.00    -0.126 NA
BRANCH  20  21
HETATM   21  O   UNK     0     154.176 160.836 190.267  0.00  0.00    -0.234 OA
HETATM   22  C   UNK     0     153.492 159.748 189.419  0.00  0.00     0.211 C 
ENDBRANCH  20  21
ENDBRANCH  13  20
ENDBRANCH  11  13
ENDBRANCH   7  10
BRANCH   3  23
HETATM   23  C   UNK     0     149.088 168.039 185.960  0.00  0.00     0.227 C 
HETATM   24  O   UNK     0     149.326 168.323 184.445  0.00  0.00    -0.643 OA
HETATM   25  O   UNK     0     149.510 169.156 187.003  0.00  0.00    -0.643 OA
ENDBRANCH   3  23
BRANCH   4  26
HETATM   26  C   UNK     0     146.156 167.554 185.560  0.00  0.00     0.089 C 
BRANCH  26  27
HETATM   27  S   UNK     0     145.795 167.283 184.110  0.00  0.00    -0.071 SA
BRANCH  27  28
HETATM   28  C   UNK     0     145.317 168.433 183.241  0.00  0.00     0.190 A 
HETATM   29  N   UNK     0     146.330 169.321 182.493  0.00  0.00    -0.192 NA
HETATM   30  C   UNK     0     145.851 170.471 181.625  0.00  0.00     0.260 A 
HETATM   31  C   UNK     0     144.303 170.775 181.475  0.00  0.00     0.274 A 
HETATM   32  O   UNK     0     146.864 171.358 180.877  0.00  0.00    -0.165 OA
HETATM   33  N   UNK     0     143.290 169.888 182.222  0.00  0.00    -0.136 NA
HETATM   34  O   UNK     0     143.824 171.926 180.606  0.00  0.00    -0.164 OA
HETATM   35  N   UNK     0     143.826 168.696 183.120  0.00  0.00    -0.225 N 
HETATM   36  C   UNK     0     142.814 167.809 183.868  0.00  0.00     0.156 C 
ENDBRANCH  27  28
ENDBRANCH  26  27
ENDBRANCH   4  26
TORSDOF 9
ENDMDL
MODEL 3
REMARK VINA RESULT:      -7.5      2.993      4.121
REMARK  9 active torsions:
REMARK  status: ('A' for Active; 'I' for Inactive)
REMARK    1  A    between atoms: C_3  and  C_21 
REMARK    2  A    between atoms: C_4  and  C_14 
REMARK    3  A    between atoms: C_7  and  N_9 
REMARK       I    between atoms: N_9  and  C_10 
REMARK    4  A    between atoms: C_10  and  C_13 
REMARK    5  A    between atoms: C_13  and  C_15 
REMARK    6  A    between atoms: C_13  and  N_20 
REMARK    7  A    between atoms: C_14  and  S_24 
REMARK    8  A    between atoms: N_20  and  O_35 
REMARK    9  A    between atoms: S_24  and  C_25 
ROOT
HETATM    1  C   UNK     0     146.161 164.362 186.997  0.00  0.00     0.308 A 
HETATM    2  N   UNK     0     147.544 164.132 186.580  0.00  0.00    -0.297 N 
HETATM    3  C   UNK     0     148.605 163.656 187.658  0.00  0.00     0.121 A 
HETATM    4  C   UNK     0     148.190 163.442 189.104  0.00  0.00    -0.002 A 
HETATM    5  C   UNK     0     146.807 163.672 189.520  0.00  0.00     0.065 A 
HETATM    6  S   UNK     0     145.765 164.128 188.514  0.00  0.00    -0.194 SA
HETATM    7  C   UNK     0     145.792 164.756 185.554  0.00  0.00     0.125 A 
HETATM    8  C   UNK     0     147.175 164.526 185.138  0.00  0.00     0.211 A 
HETATM    9  O   UNK     0     147.590 164.740 183.692  0.00  0.00    -0.170 OA
ENDROOT
BRANCH   7  10
HETATM   10  N   UNK     0     144.750 165.212 184.548  0.00  0.00    -0.217 NA
HETATM   11  C   UNK     0     144.339 166.674 184.523  0.00  0.00     0.234 C 
HETATM   12  O   UNK     0     144.938 167.629 185.455  0.00  0.00    -0.167 OA
BRANCH  11  13
HETATM   13  C   UNK     0     143.297 167.130 183.516  0.00  0.00     0.165 C 
BRANCH  13  14
HETATM   14  C   UNK     0     143.419 168.549 182.820  0.00  0.00     0.091 A 
HETATM   15  C   UNK     0     142.145 169.409 182.918  0.00  0.00     0.108 A 
HETATM   16  S   UNK     0     142.459 170.730 182.192  0.00  0.00    -0.072 SA
HETATM   17  C   UNK     0     143.963 170.706 181.623  0.00  0.00     0.456 A 
HETATM   18  N   UNK     0     144.563 169.343 182.015  0.00  0.00    -0.229 NA
HETATM   19  N   UNK     0     144.662 171.831 180.839  0.00  0.00     0.656 N 
ENDBRANCH  13  14
BRANCH  13  20
HETATM   20  N   UNK     0     142.048 166.176 183.140  0.00  0.00    -0.126 NA
BRANCH  20  21
HETATM   21  O   UNK     0     141.763 165.803 181.672  0.00  0.00    -0.234 OA
HETATM   22  C   UNK     0     140.597 164.862 181.317  0.00  0.00     0.211 C 
ENDBRANCH  20  21
ENDBRANCH  13  20
ENDBRANCH  11  13
ENDBRANCH   7  10
BRANCH   3  23
HETATM   23  C   UNK     0     150.061 163.414 187.220  0.00  0.00     0.227 C 
HETATM   24  O   UNK     0     151.119 164.555 187.130  0.00  0.00    -0.643 OA
HETATM   25  O   UNK     0     150.516 161.944 186.839  0.00  0.00    -0.643 OA
ENDBRANCH   3  23
BRANCH   4  26
HETATM   26  C   UNK     0     149.305 162.974 190.088  0.00  0.00     0.089 C 
BRANCH  26  27
HETATM   27  S   UNK     0     149.876 164.028 191.020  0.00  0.00    -0.071 SA
BRANCH  27  28
HETATM   28  C   UNK     0     150.753 165.126 190.444  0.00  0.00     0.190 A 
HETATM   29  N   UNK     0     150.120 166.390 189.833  0.00  0.00    -0.192 NA
HETATM   30  C   UNK     0     150.996 167.488 189.256  0.00  0.00     0.260 A 
HETATM   31  C   UNK     0     152.575 167.350 189.275  0.00  0.00     0.274 A 
HETATM   32  O   UNK     0     150.363 168.752 188.645  0.00  0.00    -0.165 OA
HETATM   33  N   UNK     0     153.208 166.085 189.886  0.00  0.00    -0.136 NA
HETATM   34  O   UNK     0     153.452 168.448 188.698  0.00  0.00    -0.164 OA
HETATM   35  N   UNK     0     152.262 164.960 190.478  0.00  0.00    -0.225 N 
HETATM   36  C   UNK     0     152.895 163.696 191.089  0.00  0.00     0.156 C 
ENDBRANCH  27  28
ENDBRANCH  26  27
ENDBRANCH   4  26
TORSDOF 9
ENDMDL
MODEL 4
REMARK VINA RESULT:      -7.3     29.354     32.177
REMARK  9 active torsions:
REMARK  status: ('A' for Active; 'I' for Inactive)
REMARK    1  A    between atoms: C_3  and  C_21 
REMARK    2  A    between atoms: C_4  and  C_14 
REMARK    3  A    between atoms: C_7  and  N_9 
REMARK       I    between atoms: N_9  and  C_10 
REMARK    4  A    between atoms: C_10  and  C_13 
REMARK    5  A    between atoms: C_13  and  C_15 
REMARK    6  A    between atoms: C_13  and  N_20 
REMARK    7  A    between atoms: C_14  and  S_24 
REMARK    8  A    between atoms: N_20  and  O_35 
REMARK    9  A    between atoms: S_24  and  C_25 
ROOT
HETATM    1  C   UNK     0     178.462 166.357 191.421  0.00  0.00     0.308 A 
HETATM    2  N   UNK     0     177.441 166.829 192.357  0.00  0.00    -0.297 N 
HETATM    3  C   UNK     0     177.358 168.377 192.691  0.00  0.00     0.121 A 
HETATM    4  C   UNK     0     178.324 169.356 192.047  0.00  0.00    -0.002 A 
HETATM    5  C   UNK     0     179.345 168.885 191.111  0.00  0.00     0.065 A 
HETATM    6  S   UNK     0     179.453 167.409 190.768  0.00  0.00    -0.194 SA
HETATM    7  C   UNK     0     177.957 164.913 191.598  0.00  0.00     0.125 A 
HETATM    8  C   UNK     0     176.937 165.385 192.534  0.00  0.00     0.211 A 
HETATM    9  O   UNK     0     175.971 164.405 193.178  0.00  0.00    -0.170 OA
ENDROOT
BRANCH   7  10
HETATM   10  N   UNK     0     178.065 163.438 191.255  0.00  0.00    -0.217 NA
HETATM   11  C   UNK     0     177.175 162.866 190.165  0.00  0.00     0.234 C 
HETATM   12  O   UNK     0     176.227 163.725 189.455  0.00  0.00    -0.167 OA
BRANCH  11  13
HETATM   13  C   UNK     0     177.283 161.390 189.823  0.00  0.00     0.165 C 
BRANCH  13  14
HETATM   14  C   UNK     0     178.545 160.548 190.283  0.00  0.00     0.091 A 
HETATM   15  C   UNK     0     179.384 159.987 189.120  0.00  0.00     0.108 A 
HETATM   16  S   UNK     0     180.549 159.211 189.763  0.00  0.00    -0.072 SA
HETATM   17  C   UNK     0     180.444 159.282 191.366  0.00  0.00     0.456 A 
HETATM   18  N   UNK     0     179.192 160.118 191.691  0.00  0.00    -0.229 NA
HETATM   19  N   UNK     0     181.411 158.638 192.375  0.00  0.00     0.656 N 
ENDBRANCH  13  14
BRANCH  13  20
HETATM   20  N   UNK     0     176.112 160.656 188.984  0.00  0.00    -0.126 NA
BRANCH  20  21
HETATM   21  O   UNK     0     175.004 159.870 189.712  0.00  0.00    -0.234 OA
HETATM   22  C   UNK     0     175.360 158.699 190.646  0.00  0.00     0.211 C 
ENDBRANCH  20  21
ENDBRANCH  13  20
ENDBRANCH  11  13
ENDBRANCH   7  10
BRANCH   3  23
HETATM   23  C   UNK     0     176.284 168.873 193.676  0.00  0.00     0.227 C 
HETATM   24  O   UNK     0     176.484 168.862 195.223  0.00  0.00    -0.643 OA
HETATM   25  O   UNK     0     174.910 169.421 193.106  0.00  0.00    -0.643 OA
ENDBRANCH   3  23
BRANCH   4  26
HETATM   26  C   UNK     0     178.163 170.857 192.439  0.00  0.00     0.089 C 
BRANCH  26  27
HETATM   27  S   UNK     0     179.272 171.464 193.280  0.00  0.00    -0.071 SA
BRANCH  27  28
HETATM   28  C   UNK     0     179.326 171.152 194.765  0.00  0.00     0.190 A 
HETATM   29  N   UNK     0     178.340 171.823 195.740  0.00  0.00    -0.192 NA
HETATM   30  C   UNK     0     178.395 171.512 197.226  0.00  0.00     0.260 A 
HETATM   31  C   UNK     0     179.466 170.492 197.795  0.00  0.00     0.274 A 
HETATM   32  O   UNK     0     177.409 172.183 198.201  0.00  0.00    -0.165 OA
HETATM   33  N   UNK     0     180.452 169.821 196.820  0.00  0.00    -0.136 NA
HETATM   34  O   UNK     0     179.521 170.180 199.280  0.00  0.00    -0.164 OA
HETATM   35  N   UNK     0     180.365 170.170 195.276  0.00  0.00    -0.225 N 
HETATM   36  C   UNK     0     181.351 169.499 194.301  0.00  0.00     0.156 C 
ENDBRANCH  27  28
ENDBRANCH  26  27
ENDBRANCH   4  26
TORSDOF 9
ENDMDL
MODEL 5
REMARK VINA RESULT:      -7.2     39.754     41.882
REMARK  9 active torsions:
REMARK  status: ('A' for Active; 'I' for Inactive)
REMARK    1  A    between atoms: C_3  and  C_21 
REMARK    2  A    between atoms: C_4  and  C_14 
REMARK    3  A    between atoms: C_7  and  N_9 
REMARK       I    between atoms: N_9  and  C_10 
REMARK    4  A    between atoms: C_10  and  C_13 
REMARK    5  A    between atoms: C_13  and  C_15 
REMARK    6  A    between atoms: C_13  and  N_20 
REMARK    7  A    between atoms: C_14  and  S_24 
REMARK    8  A    between atoms: N_20  and  O_35 
REMARK    9  A    between atoms: S_24  and  C_25 
ROOT
HETATM    1  C   UNK     0     170.426 176.511 153.508  0.00  0.00     0.308 A 
HETATM    2  N   UNK     0     170.988 175.411 154.293  0.00  0.00    -0.297 N 
HETATM    3  C   UNK     0     170.571 175.261 155.815  0.00  0.00     0.121 A 
HETATM    4  C   UNK     0     169.602 176.244 156.449  0.00  0.00    -0.002 A 
HETATM    5  C   UNK     0     169.041 177.344 155.664  0.00  0.00     0.065 A 
HETATM    6  S   UNK     0     169.418 177.518 154.204  0.00  0.00    -0.194 SA
HETATM    7  C   UNK     0     171.218 176.035 152.276  0.00  0.00     0.125 A 
HETATM    8  C   UNK     0     171.779 174.936 153.061  0.00  0.00     0.211 A 
HETATM    9  O   UNK     0     172.748 173.952 152.427  0.00  0.00    -0.170 OA
ENDROOT
BRANCH   7  10
HETATM   10  N   UNK     0     171.595 176.209 150.815  0.00  0.00    -0.217 NA
HETATM   11  C   UNK     0     170.776 175.499 149.751  0.00  0.00     0.234 C 
HETATM   12  O   UNK     0     169.639 174.659 150.129  0.00  0.00    -0.167 OA
BRANCH  11  13
HETATM   13  C   UNK     0     171.153 175.673 148.291  0.00  0.00     0.165 C 
BRANCH  13  14
HETATM   14  C   UNK     0     172.111 174.630 147.578  0.00  0.00     0.091 A 
HETATM   15  C   UNK     0     172.662 173.540 148.515  0.00  0.00     0.108 A 
HETATM   16  S   UNK     0     173.558 172.637 147.647  0.00  0.00    -0.072 SA
HETATM   17  C   UNK     0     173.574 173.166 146.129  0.00  0.00     0.456 A 
HETATM   18  N   UNK     0     172.670 174.412 146.086  0.00  0.00    -0.229 NA
HETATM   19  N   UNK     0     174.346 172.544 144.952  0.00  0.00     0.656 N 
ENDBRANCH  13  14
BRANCH  13  20
HETATM   20  N   UNK     0     170.584 176.926 147.441  0.00  0.00    -0.126 NA
BRANCH  20  21
HETATM   21  O   UNK     0     171.306 178.287 147.476  0.00  0.00    -0.234 OA
HETATM   22  C   UNK     0     171.233 179.178 148.729  0.00  0.00     0.211 C 
ENDBRANCH  20  21
ENDBRANCH  13  20
ENDBRANCH  11  13
ENDBRANCH   7  10
BRANCH   3  23
HETATM   23  C   UNK     0     171.162 174.104 156.642  0.00  0.00     0.227 C 
HETATM   24  O   UNK     0     170.287 172.966 157.253  0.00  0.00    -0.643 OA
HETATM   25  O   UNK     0     172.727 174.056 156.890  0.00  0.00    -0.643 OA
ENDBRANCH   3  23
BRANCH   4  26
HETATM   26  C   UNK     0     169.255 176.012 157.951  0.00  0.00     0.089 C 
BRANCH  26  27
HETATM   27  S   UNK     0     169.969 176.895 158.960  0.00  0.00    -0.071 SA
BRANCH  27  28
HETATM   28  C   UNK     0     171.391 176.548 159.366  0.00  0.00     0.190 A 
HETATM   29  N   UNK     0     171.697 175.219 160.082  0.00  0.00    -0.192 NA
HETATM   30  C   UNK     0     173.119 174.873 160.488  0.00  0.00     0.260 A 
HETATM   31  C   UNK     0     174.309 175.875 160.182  0.00  0.00     0.274 A 
HETATM   32  O   UNK     0     173.425 173.544 161.204  0.00  0.00    -0.165 OA
HETATM   33  N   UNK     0     174.003 177.203 159.466  0.00  0.00    -0.136 NA
HETATM   34  O   UNK     0     175.731 175.528 160.588  0.00  0.00    -0.164 OA
HETATM   35  N   UNK     0     172.507 177.531 159.057  0.00  0.00    -0.225 N 
HETATM   36  C   UNK     0     172.201 178.860 158.341  0.00  0.00     0.156 C 
ENDBRANCH  27  28
ENDBRANCH  26  27
ENDBRANCH   4  26
TORSDOF 9
ENDMDL
MODEL 6
REMARK VINA RESULT:      -7.2     32.989     35.542
REMARK  9 active torsions:
REMARK  status: ('A' for Active; 'I' for Inactive)
REMARK    1  A    between atoms: C_3  and  C_21 
REMARK    2  A    between atoms: C_4  and  C_14 
REMARK    3  A    between atoms: C_7  and  N_9 
REMARK       I    between atoms: N_9  and  C_10 
REMARK    4  A    between atoms: C_10  and  C_13 
REMARK    5  A    between atoms: C_13  and  C_15 
REMARK    6  A    between atoms: C_13  and  N_20 
REMARK    7  A    between atoms: C_14  and  S_24 
REMARK    8  A    between atoms: N_20  and  O_35 
REMARK    9  A    between atoms: S_24  and  C_25 
ROOT
HETATM    1  C   UNK     0     165.567 177.854 158.298  0.00  0.00     0.308 A 
HETATM    2  N   UNK     0     165.221 177.187 157.042  0.00  0.00    -0.297 N 
HETATM    3  C   UNK     0     166.385 176.635 156.118  0.00  0.00     0.121 A 
HETATM    4  C   UNK     0     167.838 176.797 156.529  0.00  0.00    -0.002 A 
HETATM    5  C   UNK     0     168.184 177.464 157.785  0.00  0.00     0.065 A 
HETATM    6  S   UNK     0     167.095 178.004 158.695  0.00  0.00    -0.194 SA
HETATM    7  C   UNK     0     164.072 178.077 158.591  0.00  0.00     0.125 A 
HETATM    8  C   UNK     0     163.726 177.410 157.335  0.00  0.00     0.211 A 
HETATM    9  O   UNK     0     162.273 177.249 156.924  0.00  0.00    -0.170 OA
ENDROOT
BRANCH   7  10
HETATM   10  N   UNK     0     162.983 178.618 159.501  0.00  0.00    -0.217 NA
HETATM   11  C   UNK     0     163.375 179.264 160.818  0.00  0.00     0.234 C 
HETATM   12  O   UNK     0     164.782 179.364 161.205  0.00  0.00    -0.167 OA
BRANCH  11  13
HETATM   13  C   UNK     0     162.286 179.804 161.728  0.00  0.00     0.165 C 
BRANCH  13  14
HETATM   14  C   UNK     0     161.271 180.903 161.202  0.00  0.00     0.091 A 
HETATM   15  C   UNK     0     159.920 180.916 161.942  0.00  0.00     0.108 A 
HETATM   16  S   UNK     0     159.085 182.036 161.295  0.00  0.00    -0.072 SA
HETATM   17  C   UNK     0     159.923 182.746 160.122  0.00  0.00     0.456 A 
HETATM   18  N   UNK     0     161.290 182.038 160.064  0.00  0.00    -0.229 NA
HETATM   19  N   UNK     0     159.448 183.909 159.232  0.00  0.00     0.656 N 
ENDBRANCH  13  14
BRANCH  13  20
HETATM   20  N   UNK     0     162.145 179.268 163.247  0.00  0.00    -0.126 NA
BRANCH  20  21
HETATM   21  O   UNK     0     163.396 178.869 164.054  0.00  0.00    -0.234 OA
HETATM   22  C   UNK     0     163.256 178.110 165.387  0.00  0.00     0.211 C 
ENDBRANCH  20  21
ENDBRANCH  13  20
ENDBRANCH  11  13
ENDBRANCH   7  10
BRANCH   3  23
HETATM   23  C   UNK     0     166.022 175.933 154.796  0.00  0.00     0.227 C 
HETATM   24  O   UNK     0     165.570 176.709 153.521  0.00  0.00    -0.643 OA
HETATM   25  O   UNK     0     166.105 174.352 154.716  0.00  0.00    -0.643 OA
ENDBRANCH   3  23
BRANCH   4  26
HETATM   26  C   UNK     0     168.909 176.221 155.553  0.00  0.00     0.089 C 
BRANCH  26  27
HETATM   27  S   UNK     0     169.541 174.895 155.941  0.00  0.00    -0.071 SA
BRANCH  27  28
HETATM   28  C   UNK     0     170.721 174.892 156.897  0.00  0.00     0.190 A 
HETATM   29  N   UNK     0     170.512 174.598 158.394  0.00  0.00    -0.192 NA
HETATM   30  C   UNK     0     171.693 174.595 159.350  0.00  0.00     0.260 A 
HETATM   31  C   UNK     0     173.157 174.893 158.820  0.00  0.00     0.274 A 
HETATM   32  O   UNK     0     171.484 174.302 160.847  0.00  0.00    -0.165 OA
HETATM   33  N   UNK     0     173.366 175.186 157.323  0.00  0.00    -0.136 NA
HETATM   34  O   UNK     0     174.337 174.889 159.776  0.00  0.00    -0.164 OA
HETATM   35  N   UNK     0     172.110 175.182 156.355  0.00  0.00    -0.225 N 
HETATM   36  C   UNK     0     172.318 175.475 154.858  0.00  0.00     0.156 C 
ENDBRANCH  27  28
ENDBRANCH  26  27
ENDBRANCH   4  26
TORSDOF 9
ENDMDL
MODEL 7
REMARK VINA RESULT:      -7.1      4.635     13.390
REMARK  9 active torsions:
REMARK  status: ('A' for Active; 'I' for Inactive)
REMARK    1  A    between atoms: C_3  and  C_21 
REMARK    2  A    between atoms: C_4  and  C_14 
REMARK    3  A    between atoms: C_7  and  N_9 
REMARK       I    between atoms: N_9  and  C_10 
REMARK    4  A    between atoms: C_10  and  C_13 
REMARK    5  A    between atoms: C_13  and  C_15 
REMARK    6  A    between atoms: C_13  and  N_20 
REMARK    7  A    between atoms: C_14  and  S_24 
REMARK    8  A    between atoms: N_20  and  O_35 
REMARK    9  A    between atoms: S_24  and  C_25 
ROOT
HETATM    1  C   UNK     0     150.874 161.440 191.784  0.00  0.00     0.308 A 
HETATM    2  N   UNK     0     151.386 161.729 190.444  0.00  0.00    -0.297 N 
HETATM    3  C   UNK     0     150.429 162.422 189.387  0.00  0.00     0.121 A 
HETATM    4  C   UNK     0     149.001 162.781 189.759  0.00  0.00    -0.002 A 
HETATM    5  C   UNK     0     148.489 162.492 191.099  0.00  0.00     0.065 A 
HETATM    6  S   UNK     0     149.378 161.829 192.137  0.00  0.00    -0.194 SA
HETATM    7  C   UNK     0     152.237 160.839 192.175  0.00  0.00     0.125 A 
HETATM    8  C   UNK     0     152.749 161.128 190.835  0.00  0.00     0.211 A 
HETATM    9  O   UNK     0     154.176 160.769 190.462  0.00  0.00    -0.170 OA
ENDROOT
BRANCH   7  10
HETATM   10  N   UNK     0     153.125 160.176 193.212  0.00  0.00    -0.217 NA
HETATM   11  C   UNK     0     152.735 160.256 194.678  0.00  0.00     0.234 C 
HETATM   12  O   UNK     0     151.520 160.962 195.084  0.00  0.00    -0.167 OA
BRANCH  11  13
HETATM   13  C   UNK     0     153.624 159.593 195.715  0.00  0.00     0.165 C 
BRANCH  13  14
HETATM   14  C   UNK     0     154.926 160.326 196.246  0.00  0.00     0.091 A 
HETATM   15  C   UNK     0     155.130 161.740 195.670  0.00  0.00     0.108 A 
HETATM   16  S   UNK     0     156.429 162.278 196.297  0.00  0.00    -0.072 SA
HETATM   17  C   UNK     0     157.060 161.183 197.291  0.00  0.00     0.456 A 
HETATM   18  N   UNK     0     156.121 159.963 197.258  0.00  0.00    -0.229 NA
HETATM   19  N   UNK     0     158.353 161.331 198.112  0.00  0.00     0.656 N 
ENDBRANCH  13  14
BRANCH  13  20
HETATM   20  N   UNK     0     153.256 158.129 196.295  0.00  0.00    -0.126 NA
BRANCH  20  21
HETATM   21  O   UNK     0     152.592 157.979 197.677  0.00  0.00    -0.234 OA
HETATM   22  C   UNK     0     151.164 158.503 197.918  0.00  0.00     0.211 C 
ENDBRANCH  20  21
ENDBRANCH  13  20
ENDBRANCH  11  13
ENDBRANCH   7  10
BRANCH   3  23
HETATM   23  C   UNK     0     150.968 162.727 187.977  0.00  0.00     0.227 C 
HETATM   24  O   UNK     0     151.514 164.127 187.563  0.00  0.00    -0.643 OA
HETATM   25  O   UNK     0     150.972 161.574 186.888  0.00  0.00    -0.643 OA
ENDBRANCH   3  23
BRANCH   4  26
HETATM   26  C   UNK     0     148.139 163.459 188.651  0.00  0.00     0.089 C 
BRANCH  26  27
HETATM   27  S   UNK     0     147.743 164.907 188.887  0.00  0.00    -0.071 SA
BRANCH  27  28
HETATM   28  C   UNK     0     148.491 166.005 188.151  0.00  0.00     0.190 A 
HETATM   29  N   UNK     0     148.050 166.439 186.741  0.00  0.00    -0.192 NA
HETATM   30  C   UNK     0     148.797 167.537 186.005  0.00  0.00     0.260 A 
HETATM   31  C   UNK     0     150.042 168.253 186.677  0.00  0.00     0.274 A 
HETATM   32  O   UNK     0     148.357 167.972 184.594  0.00  0.00    -0.165 OA
HETATM   33  N   UNK     0     150.483 167.819 188.087  0.00  0.00    -0.136 NA
HETATM   34  O   UNK     0     150.790 169.351 185.941  0.00  0.00    -0.164 OA
HETATM   35  N   UNK     0     149.679 166.668 188.825  0.00  0.00    -0.225 N 
HETATM   36  C   UNK     0     150.120 166.234 190.235  0.00  0.00     0.156 C 
ENDBRANCH  27  28
ENDBRANCH  26  27
ENDBRANCH   4  26
TORSDOF 9
ENDMDL
MODEL 8
REMARK VINA RESULT:      -6.9     27.881     31.816
REMARK  9 active torsions:
REMARK  status: ('A' for Active; 'I' for Inactive)
REMARK    1  A    between atoms: C_3  and  C_21 
REMARK    2  A    between atoms: C_4  and  C_14 
REMARK    3  A    between atoms: C_7  and  N_9 
REMARK       I    between atoms: N_9  and  C_10 
REMARK    4  A    between atoms: C_10  and  C_13 
REMARK    5  A    between atoms: C_13  and  C_15 
REMARK    6  A    between atoms: C_13  and  N_20 
REMARK    7  A    between atoms: C_14  and  S_24 
REMARK    8  A    between atoms: N_20  and  O_35 
REMARK    9  A    between atoms: S_24  and  C_25 
ROOT
HETATM    1  C   UNK     0     178.195 165.652 191.827  0.00  0.00     0.308 A 
HETATM    2  N   UNK     0     177.149 166.469 192.443  0.00  0.00    -0.297 N 
HETATM    3  C   UNK     0     177.300 168.047 192.436  0.00  0.00     0.121 A 
HETATM    4  C   UNK     0     178.513 168.702 191.799  0.00  0.00    -0.002 A 
HETATM    5  C   UNK     0     179.558 167.886 191.182  0.00  0.00     0.065 A 
HETATM    6  S   UNK     0     179.446 166.371 191.171  0.00  0.00    -0.194 SA
HETATM    7  C   UNK     0     177.415 164.376 192.195  0.00  0.00     0.125 A 
HETATM    8  C   UNK     0     176.370 165.193 192.811  0.00  0.00     0.211 A 
HETATM    9  O   UNK     0     175.157 164.537 193.449  0.00  0.00    -0.170 OA
ENDROOT
BRANCH   7  10
HETATM   10  N   UNK     0     177.304 162.862 192.183  0.00  0.00    -0.217 NA
HETATM   11  C   UNK     0     177.944 162.083 191.048  0.00  0.00     0.234 C 
HETATM   12  O   UNK     0     178.659 162.782 189.980  0.00  0.00    -0.167 OA
BRANCH  11  13
HETATM   13  C   UNK     0     177.832 160.569 191.036  0.00  0.00     0.165 C 
BRANCH  13  14
HETATM   14  C   UNK     0     176.417 159.868 190.895  0.00  0.00     0.091 A 
HETATM   15  C   UNK     0     176.058 158.936 192.067  0.00  0.00     0.108 A 
HETATM   16  S   UNK     0     174.666 158.359 191.748  0.00  0.00    -0.072 SA
HETATM   17  C   UNK     0     174.134 158.938 190.346  0.00  0.00     0.456 A 
HETATM   18  N   UNK     0     175.228 159.881 189.813  0.00  0.00    -0.229 NA
HETATM   19  N   UNK     0     172.789 158.610 189.672  0.00  0.00     0.656 N 
ENDBRANCH  13  14
BRANCH  13  20
HETATM   20  N   UNK     0     179.155 159.648 191.168  0.00  0.00    -0.126 NA
BRANCH  20  21
HETATM   21  O   UNK     0     180.400 159.940 190.308  0.00  0.00    -0.234 OA
HETATM   22  C   UNK     0     180.337 159.818 188.774  0.00  0.00     0.211 C 
ENDBRANCH  20  21
ENDBRANCH  13  20
ENDBRANCH  11  13
ENDBRANCH   7  10
BRANCH   3  23
HETATM   23  C   UNK     0     176.199 168.907 193.085  0.00  0.00     0.227 C 
HETATM   24  O   UNK     0     176.137 169.188 194.618  0.00  0.00    -0.643 OA
HETATM   25  O   UNK     0     175.073 169.539 192.166  0.00  0.00    -0.643 OA
ENDBRANCH   3  23
BRANCH   4  26
HETATM   26  C   UNK     0     178.570 170.260 191.843  0.00  0.00     0.089 C 
BRANCH  26  27
HETATM   27  S   UNK     0     179.698 170.877 192.650  0.00  0.00    -0.071 SA
BRANCH  27  28
HETATM   28  C   UNK     0     179.715 170.692 194.157  0.00  0.00     0.190 A 
HETATM   29  N   UNK     0     178.686 171.417 195.044  0.00  0.00    -0.192 NA
HETATM   30  C   UNK     0     178.702 171.232 196.551  0.00  0.00     0.260 A 
HETATM   31  C   UNK     0     179.779 170.290 197.234  0.00  0.00     0.274 A 
HETATM   32  O   UNK     0     177.673 171.957 197.438  0.00  0.00    -0.165 OA
HETATM   33  N   UNK     0     180.809 169.565 196.347  0.00  0.00    -0.136 NA
HETATM   34  O   UNK     0     179.796 170.105 198.741  0.00  0.00    -0.164 OA
HETATM   35  N   UNK     0     180.761 169.782 194.777  0.00  0.00    -0.225 N 
HETATM   36  C   UNK     0     181.790 169.057 193.890  0.00  0.00     0.156 C 
ENDBRANCH  27  28
ENDBRANCH  26  27
ENDBRANCH   4  26
TORSDOF 9
ENDMDL
MODEL 9
REMARK VINA RESULT:      -6.9     33.032     36.165
REMARK  9 active torsions:
REMARK  status: ('A' for Active; 'I' for Inactive)
REMARK    1  A    between atoms: C_3  and  C_21 
REMARK    2  A    between atoms: C_4  and  C_14 
REMARK    3  A    between atoms: C_7  and  N_9 
REMARK       I    between atoms: N_9  and  C_10 
REMARK    4  A    between atoms: C_10  and  C_13 
REMARK    5  A    between atoms: C_13  and  C_15 
REMARK    6  A    between atoms: C_13  and  N_20 
REMARK    7  A    between atoms: C_14  and  S_24 
REMARK    8  A    between atoms: N_20  and  O_35 
REMARK    9  A    between atoms: S_24  and  C_25 
ROOT
HETATM    1  C   UNK     0     166.659 178.002 158.625  0.00  0.00     0.308 A 
HETATM    2  N   UNK     0     165.520 177.936 157.709  0.00  0.00    -0.297 N 
HETATM    3  C   UNK     0     164.115 178.495 158.186  0.00  0.00     0.121 A 
HETATM    4  C   UNK     0     163.954 179.091 159.573  0.00  0.00    -0.002 A 
HETATM    5  C   UNK     0     165.093 179.158 160.489  0.00  0.00     0.065 A 
HETATM    6  S   UNK     0     166.453 178.632 160.066  0.00  0.00    -0.194 SA
HETATM    7  C   UNK     0     167.554 177.342 157.560  0.00  0.00     0.125 A 
HETATM    8  C   UNK     0     166.416 177.276 156.644  0.00  0.00     0.211 A 
HETATM    9  O   UNK     0     166.577 176.680 155.257  0.00  0.00    -0.170 OA
ENDROOT
BRANCH   7  10
HETATM   10  N   UNK     0     168.915 176.816 157.137  0.00  0.00    -0.217 NA
HETATM   11  C   UNK     0     170.087 176.948 158.093  0.00  0.00     0.234 C 
HETATM   12  O   UNK     0     169.908 177.572 159.404  0.00  0.00    -0.167 OA
BRANCH  11  13
HETATM   13  C   UNK     0     171.447 176.422 157.670  0.00  0.00     0.165 C 
BRANCH  13  14
HETATM   14  C   UNK     0     172.460 175.850 158.748  0.00  0.00     0.091 A 
HETATM   15  C   UNK     0     171.825 174.861 159.744  0.00  0.00     0.108 A 
HETATM   16  S   UNK     0     172.953 174.425 160.697  0.00  0.00    -0.072 SA
HETATM   17  C   UNK     0     174.330 175.151 160.296  0.00  0.00     0.456 A 
HETATM   18  N   UNK     0     174.021 176.042 159.078  0.00  0.00    -0.229 NA
HETATM   19  N   UNK     0     175.690 174.985 160.997  0.00  0.00     0.656 N 
ENDBRANCH  13  14
BRANCH  13  20
HETATM   20  N   UNK     0     171.884 176.437 156.113  0.00  0.00    -0.126 NA
BRANCH  20  21
HETATM   21  O   UNK     0     171.482 175.280 155.177  0.00  0.00    -0.234 OA
HETATM   22  C   UNK     0     170.452 175.506 154.054  0.00  0.00     0.211 C 
ENDBRANCH  20  21
ENDBRANCH  13  20
ENDBRANCH  11  13
ENDBRANCH   7  10
BRANCH   3  23
HETATM   23  C   UNK     0     162.916 178.425 157.222  0.00  0.00     0.227 C 
HETATM   24  O   UNK     0     161.961 177.195 157.147  0.00  0.00    -0.643 OA
HETATM   25  O   UNK     0     162.631 179.651 156.258  0.00  0.00    -0.643 OA
ENDBRANCH   3  23
BRANCH   4  26
HETATM   26  C   UNK     0     162.534 179.614 159.948  0.00  0.00     0.089 C 
BRANCH  26  27
HETATM   27  S   UNK     0     162.439 180.509 161.171  0.00  0.00    -0.071 SA
BRANCH  27  28
HETATM   28  C   UNK     0     163.099 180.064 162.465  0.00  0.00     0.190 A 
HETATM   29  N   UNK     0     162.725 178.717 163.109  0.00  0.00    -0.192 NA
HETATM   30  C   UNK     0     163.385 178.272 164.402  0.00  0.00     0.260 A 
HETATM   31  C   UNK     0     164.469 179.188 165.109  0.00  0.00     0.274 A 
HETATM   32  O   UNK     0     163.010 176.924 165.047  0.00  0.00    -0.165 OA
HETATM   33  N   UNK     0     164.843 180.536 164.464  0.00  0.00    -0.136 NA
HETATM   34  O   UNK     0     165.129 178.743 166.402  0.00  0.00    -0.164 OA
HETATM   35  N   UNK     0     164.133 180.967 163.114  0.00  0.00    -0.225 N 
HETATM   36  C   UNK     0     164.507 182.315 162.469  0.00  0.00     0.156 C 
ENDBRANCH  27  28
ENDBRANCH  26  27
ENDBRANCH   4  26
TORSDOF 9
ENDMDL
MODEL 10
REMARK VINA RESULT:      -6.9     42.756     44.920
REMARK  9 active torsions:
REMARK  status: ('A' for Active; 'I' for Inactive)
REMARK    1  A    between atoms: C_3  and  C_21 
REMARK    2  A    between atoms: C_4  and  C_14 
REMARK    3  A    between atoms: C_7  and  N_9 
REMARK       I    between atoms: N_9  and  C_10 
REMARK    4  A    between atoms: C_10  and  C_13 
REMARK    5  A    between atoms: C_13  and  C_15 
REMARK    6  A    between atoms: C_13  and  N_20 
REMARK    7  A    between atoms: C_14  and  S_24 
REMARK    8  A    between atoms: N_20  and  O_35 
REMARK    9  A    between atoms: S_24  and  C_25 
ROOT
HETATM    1  C   UNK     0     174.913 179.948 153.508  0.00  0.00     0.308 A 
HETATM    2  N   UNK     0     174.993 178.610 154.095  0.00  0.00    -0.297 N 
HETATM    3  C   UNK     0     173.672 177.933 154.651  0.00  0.00     0.121 A 
HETATM    4  C   UNK     0     172.341 178.662 154.575  0.00  0.00    -0.002 A 
HETATM    5  C   UNK     0     172.261 180.000 153.987  0.00  0.00     0.065 A 
HETATM    6  S   UNK     0     173.507 180.679 153.446  0.00  0.00    -0.194 SA
HETATM    7  C   UNK     0     176.428 179.918 153.234  0.00  0.00     0.125 A 
HETATM    8  C   UNK     0     176.508 178.581 153.821  0.00  0.00     0.211 A 
HETATM    9  O   UNK     0     177.838 177.852 153.898  0.00  0.00    -0.170 OA
ENDROOT
BRANCH   7  10
HETATM   10  N   UNK     0     177.674 180.597 152.692  0.00  0.00    -0.217 NA
HETATM   11  C   UNK     0     177.746 180.936 151.214  0.00  0.00     0.234 C 
HETATM   12  O   UNK     0     176.630 180.613 150.324  0.00  0.00    -0.167 OA
BRANCH  11  13
HETATM   13  C   UNK     0     178.991 181.615 150.672  0.00  0.00     0.165 C 
BRANCH  13  14
HETATM   14  C   UNK     0     180.126 180.765 149.962  0.00  0.00     0.091 A 
HETATM   15  C   UNK     0     181.037 179.996 150.936  0.00  0.00     0.108 A 
HETATM   16  S   UNK     0     182.060 179.243 150.066  0.00  0.00    -0.072 SA
HETATM   17  C   UNK     0     181.791 179.542 148.509  0.00  0.00     0.456 A 
HETATM   18  N   UNK     0     180.582 180.494 148.444  0.00  0.00    -0.229 NA
HETATM   19  N   UNK     0     182.590 178.982 147.319  0.00  0.00     0.656 N 
ENDBRANCH  13  14
BRANCH  13  20
HETATM   20  N   UNK     0     179.179 183.215 150.811  0.00  0.00    -0.126 NA
BRANCH  20  21
HETATM   21  O   UNK     0     178.303 184.180 149.988  0.00  0.00    -0.234 OA
HETATM   22  C   UNK     0     176.859 184.489 150.424  0.00  0.00     0.211 C 
ENDBRANCH  20  21
ENDBRANCH  13  20
ENDBRANCH  11  13
ENDBRANCH   7  10
BRANCH   3  23
HETATM   23  C   UNK     0     173.756 176.525 155.269  0.00  0.00     0.227 C 
HETATM   24  O   UNK     0     174.231 176.269 156.732  0.00  0.00    -0.643 OA
HETATM   25  O   UNK     0     173.344 175.272 154.389  0.00  0.00    -0.643 OA
ENDBRANCH   3  23
BRANCH   4  26
HETATM   26  C   UNK     0     171.100 177.913 155.147  0.00  0.00     0.089 C 
BRANCH  26  27
HETATM   27  S   UNK     0     170.697 178.252 156.572  0.00  0.00    -0.071 SA
BRANCH  27  28
HETATM   28  C   UNK     0     170.920 177.224 157.667  0.00  0.00     0.190 A 
HETATM   29  N   UNK     0     170.133 175.901 157.668  0.00  0.00    -0.192 NA
HETATM   30  C   UNK     0     170.356 174.873 158.763  0.00  0.00     0.260 A 
HETATM   31  C   UNK     0     171.403 175.146 159.922  0.00  0.00     0.274 A 
HETATM   32  O   UNK     0     169.568 173.549 158.764  0.00  0.00    -0.165 OA
HETATM   33  N   UNK     0     172.191 176.470 159.921  0.00  0.00    -0.136 NA
HETATM   34  O   UNK     0     171.626 174.118 161.017  0.00  0.00    -0.164 OA
HETATM   35  N   UNK     0     171.931 177.520 158.761  0.00  0.00    -0.225 N 
HETATM   36  C   UNK     0     172.719 178.843 158.760  0.00  0.00     0.156 C 
ENDBRANCH  27  28
ENDBRANCH  26  27
ENDBRANCH   4  26
TORSDOF 9
ENDMDL
