MODEL 1
REMARK VINA RESULT:      -6.2      0.000      0.000
REMARK  1 active torsions:
REMARK  status: ('A' for Active; 'I' for Inactive)
REMARK    1  A    between atoms: N_4  and  C_11 
ROOT
HETATM    1 Cl   UNK     0     197.907 176.453 156.319  0.00  0.00    -0.091 Cl
HETATM    2  O   UNK     0     201.298 180.435 162.151  0.00  0.00    -0.171 OA
HETATM    3  O   UNK     0     202.357 175.668 163.889  0.00  0.00    -0.171 OA
HETATM    4  N   UNK     0     200.334 178.677 160.484  0.00  0.00    -0.295 N 
HETATM    5  N   UNK     0     201.041 175.494 161.644  0.00  0.00    -0.307 N 
HETATM    6  C   UNK     0     199.972 177.321 159.850  0.00  0.00     0.059 A 
HETATM    7  C   UNK     0     200.287 175.905 160.366  0.00  0.00     0.052 A 
HETATM    8  C   UNK     0     201.692 177.938 162.788  0.00  0.00     0.091 A 
HETATM    9  C   UNK     0     201.099 178.951 161.792  0.00  0.00     0.201 A 
HETATM   10  C   UNK     0     201.666 176.399 162.722  0.00  0.00     0.198 A 
HETATM   11  C   UNK     0     199.166 177.538 158.479  0.00  0.00     0.079 A 
HETATM   12  C   UNK     0     199.817 174.607 159.548  0.00  0.00     0.050 A 
HETATM   13  C   UNK     0     201.189 173.979 161.876  0.00  0.00     0.132 C 
HETATM   14  C   UNK     0     198.682 176.263 157.636  0.00  0.00     0.020 A 
HETATM   15  C   UNK     0     199.009 174.787 158.174  0.00  0.00     0.040 A 
ENDROOT
BRANCH   4  16
HETATM   16  C   UNK     0     199.868 179.923 159.709  0.00  0.00     0.021 A 
HETATM   17  C   UNK     0     198.412 180.408 159.832  0.00  0.00     0.040 A 
HETATM   18  C   UNK     0     197.946 181.654 159.056  0.00  0.00     0.006 A 
HETATM   19  C   UNK     0     198.938 182.416 158.158  0.00  0.00     0.001 A 
HETATM   20  C   UNK     0     200.395 181.931 158.034  0.00  0.00     0.006 A 
HETATM   21  C   UNK     0     200.859 180.685 158.810  0.00  0.00     0.040 A 
ENDBRANCH   4  16
TORSDOF 1
ENDMDL
MODEL 2
REMARK VINA RESULT:      -6.0     30.564     32.444
REMARK  1 active torsions:
REMARK  status: ('A' for Active; 'I' for Inactive)
REMARK    1  A    between atoms: N_4  and  C_11 
ROOT
HETATM    1 Cl   UNK     0     188.741 162.237 189.628  0.00  0.00    -0.091 Cl
HETATM    2  O   UNK     0     186.910 163.462 182.110  0.00  0.00    -0.171 OA
HETATM    3  O   UNK     0     187.394 158.308 181.851  0.00  0.00    -0.171 OA
HETATM    4  N   UNK     0     187.541 162.537 184.465  0.00  0.00    -0.295 N 
HETATM    5  N   UNK     0     187.864 159.096 184.293  0.00  0.00    -0.307 N 
HETATM    6  C   UNK     0     187.899 161.549 185.590  0.00  0.00     0.059 A 
HETATM    7  C   UNK     0     188.043 160.017 185.514  0.00  0.00     0.052 A 
HETATM    8  C   UNK     0     187.217 160.877 182.265  0.00  0.00     0.091 A 
HETATM    9  C   UNK     0     187.237 162.238 182.986  0.00  0.00     0.201 A 
HETATM   10  C   UNK     0     187.496 159.479 182.847  0.00  0.00     0.198 A 
HETATM   11  C   UNK     0     188.130 162.329 186.973  0.00  0.00     0.079 A 
HETATM   12  C   UNK     0     188.428 159.160 186.814  0.00  0.00     0.050 A 
HETATM   13  C   UNK     0     188.080 157.593 184.552  0.00  0.00     0.132 C 
HETATM   14  C   UNK     0     188.516 161.503 188.293  0.00  0.00     0.020 A 
HETATM   15  C   UNK     0     188.666 159.908 188.213  0.00  0.00     0.040 A 
ENDROOT
BRANCH   4  16
HETATM   16  C   UNK     0     187.477 164.020 184.874  0.00  0.00     0.021 A 
HETATM   17  C   UNK     0     186.154 164.624 185.379  0.00  0.00     0.040 A 
HETATM   18  C   UNK     0     186.090 166.108 185.787  0.00  0.00     0.006 A 
HETATM   19  C   UNK     0     187.350 166.987 185.691  0.00  0.00     0.001 A 
HETATM   20  C   UNK     0     188.674 166.383 185.186  0.00  0.00     0.006 A 
HETATM   21  C   UNK     0     188.737 164.900 184.778  0.00  0.00     0.040 A 
ENDBRANCH   4  16
TORSDOF 1
ENDMDL
MODEL 3
REMARK VINA RESULT:      -5.8     45.073     46.930
REMARK  1 active torsions:
REMARK  status: ('A' for Active; 'I' for Inactive)
REMARK    1  A    between atoms: N_4  and  C_11 
ROOT
HETATM    1 Cl   UNK     0     156.833 182.135 150.279  0.00  0.00    -0.091 Cl
HETATM    2  O   UNK     0     153.225 176.625 154.521  0.00  0.00    -0.171 OA
HETATM    3  O   UNK     0     149.784 180.425 155.291  0.00  0.00    -0.171 OA
HETATM    4  N   UNK     0     154.010 178.767 153.257  0.00  0.00    -0.295 N 
HETATM    5  N   UNK     0     151.713 181.304 153.771  0.00  0.00    -0.307 N 
HETATM    6  C   UNK     0     154.036 180.209 152.719  0.00  0.00     0.059 A 
HETATM    7  C   UNK     0     153.014 181.339 152.948  0.00  0.00     0.052 A 
HETATM    8  C   UNK     0     151.666 178.704 154.741  0.00  0.00     0.091 A 
HETATM    9  C   UNK     0     152.955 178.097 154.157  0.00  0.00     0.201 A 
HETATM   10  C   UNK     0     151.113 180.131 154.569  0.00  0.00     0.198 A 
HETATM   11  C   UNK     0     155.341 180.451 151.818  0.00  0.00     0.079 A 
HETATM   12  C   UNK     0     153.226 182.787 152.292  0.00  0.00     0.050 A 
HETATM   13  C   UNK     0     150.906 182.615 153.801  0.00  0.00     0.132 C 
HETATM   14  C   UNK     0     155.586 181.887 151.147  0.00  0.00     0.020 A 
HETATM   15  C   UNK     0     154.521 183.063 151.385  0.00  0.00     0.040 A 
ENDROOT
BRANCH   4  16
HETATM   16  C   UNK     0     155.195 177.876 152.840  0.00  0.00     0.021 A 
HETATM   17  C   UNK     0     155.067 176.944 151.622  0.00  0.00     0.040 A 
HETATM   18  C   UNK     0     156.252 176.053 151.205  0.00  0.00     0.006 A 
HETATM   19  C   UNK     0     157.565 176.096 152.007  0.00  0.00     0.001 A 
HETATM   20  C   UNK     0     157.694 177.028 153.226  0.00  0.00     0.006 A 
HETATM   21  C   UNK     0     156.509 177.918 153.642  0.00  0.00     0.040 A 
ENDBRANCH   4  16
TORSDOF 1
ENDMDL
MODEL 4
REMARK VINA RESULT:      -5.8     26.831     28.634
REMARK  1 active torsions:
REMARK  status: ('A' for Active; 'I' for Inactive)
REMARK    1  A    between atoms: N_4  and  C_11 
ROOT
HETATM    1 Cl   UNK     0     203.657 184.634 191.271  0.00  0.00    -0.091 Cl
HETATM    2  O   UNK     0     204.183 186.865 183.779  0.00  0.00    -0.171 OA
HETATM    3  O   UNK     0     208.822 184.577 184.125  0.00  0.00    -0.171 OA
HETATM    4  N   UNK     0     204.500 185.919 186.189  0.00  0.00    -0.295 N 
HETATM    5  N   UNK     0     207.596 184.392 186.420  0.00  0.00    -0.307 N 
HETATM    6  C   UNK     0     205.137 185.220 187.403  0.00  0.00     0.059 A 
HETATM    7  C   UNK     0     206.515 184.540 187.506  0.00  0.00     0.052 A 
HETATM    8  C   UNK     0     206.448 185.654 184.231  0.00  0.00     0.091 A 
HETATM    9  C   UNK     0     205.083 186.113 184.777  0.00  0.00     0.201 A 
HETATM   10  C   UNK     0     207.566 184.889 184.962  0.00  0.00     0.198 A 
HETATM   11  C   UNK     0     204.146 185.267 188.665  0.00  0.00     0.079 A 
HETATM   12  C   UNK     0     206.998 183.860 188.877  0.00  0.00     0.050 A 
HETATM   13  C   UNK     0     208.877 183.651 186.848  0.00  0.00     0.132 C 
HETATM   14  C   UNK     0     204.596 184.597 190.051  0.00  0.00     0.020 A 
HETATM   15  C   UNK     0     206.032 183.889 190.158  0.00  0.00     0.040 A 
ENDROOT
BRANCH   4  16
HETATM   16  C   UNK     0     203.093 186.503 186.416  0.00  0.00     0.021 A 
HETATM   17  C   UNK     0     201.850 185.616 186.222  0.00  0.00     0.040 A 
HETATM   18  C   UNK     0     200.443 186.199 186.450  0.00  0.00     0.006 A 
HETATM   19  C   UNK     0     200.280 187.671 186.870  0.00  0.00     0.001 A 
HETATM   20  C   UNK     0     201.523 188.560 187.064  0.00  0.00     0.006 A 
HETATM   21  C   UNK     0     202.929 187.976 186.837  0.00  0.00     0.040 A 
ENDBRANCH   4  16
TORSDOF 1
ENDMDL
MODEL 5
REMARK VINA RESULT:      -5.7     45.365     47.127
REMARK  1 active torsions:
REMARK  status: ('A' for Active; 'I' for Inactive)
REMARK    1  A    between atoms: N_4  and  C_11 
ROOT
HETATM    1 Cl   UNK     0     153.205 166.421 148.489  0.00  0.00    -0.091 Cl
HETATM    2  O   UNK     0     159.836 162.435 149.718  0.00  0.00    -0.171 OA
HETATM    3  O   UNK     0     158.988 160.844 144.858  0.00  0.00    -0.171 OA
HETATM    4  N   UNK     0     157.646 163.532 148.822  0.00  0.00    -0.295 N 
HETATM    5  N   UNK     0     157.080 162.471 145.578  0.00  0.00    -0.307 N 
HETATM    6  C   UNK     0     156.488 163.904 147.879  0.00  0.00     0.059 A 
HETATM    7  C   UNK     0     156.236 163.431 146.435  0.00  0.00     0.052 A 
HETATM    8  C   UNK     0     159.169 161.801 147.279  0.00  0.00     0.091 A 
HETATM    9  C   UNK     0     158.840 162.597 148.555  0.00  0.00     0.201 A 
HETATM   10  C   UNK     0     158.386 161.745 145.954  0.00  0.00     0.198 A 
HETATM   11  C   UNK     0     155.476 164.918 148.601  0.00  0.00     0.079 A 
HETATM   12  C   UNK     0     154.955 163.940 145.614  0.00  0.00     0.050 A 
HETATM   13  C   UNK     0     156.550 162.199 144.158  0.00  0.00     0.132 C 
HETATM   14  C   UNK     0     154.185 165.447 147.810  0.00  0.00     0.020 A 
HETATM   15  C   UNK     0     153.923 164.955 146.305  0.00  0.00     0.040 A 
ENDROOT
BRANCH   4  16
HETATM   16  C   UNK     0     157.607 164.183 150.218  0.00  0.00     0.021 A 
HETATM   17  C   UNK     0     158.318 165.526 150.462  0.00  0.00     0.040 A 
HETATM   18  C   UNK     0     158.279 166.177 151.858  0.00  0.00     0.006 A 
HETATM   19  C   UNK     0     157.528 165.483 153.008  0.00  0.00     0.001 A 
HETATM   20  C   UNK     0     156.816 164.139 152.765  0.00  0.00     0.006 A 
HETATM   21  C   UNK     0     156.856 163.489 151.370  0.00  0.00     0.040 A 
ENDBRANCH   4  16
TORSDOF 1
ENDMDL
MODEL 6
REMARK VINA RESULT:      -5.7     32.478     34.692
REMARK  1 active torsions:
REMARK  status: ('A' for Active; 'I' for Inactive)
REMARK    1  A    between atoms: N_4  and  C_11 
ROOT
HETATM    1 Cl   UNK     0     166.266 164.218 147.040  0.00  0.00    -0.091 Cl
HETATM    2  O   UNK     0     173.579 164.927 149.758  0.00  0.00    -0.171 OA
HETATM    3  O   UNK     0     173.525 169.217 146.849  0.00  0.00    -0.171 OA
HETATM    4  N   UNK     0     171.256 165.149 148.594  0.00  0.00    -0.295 N 
HETATM    5  N   UNK     0     171.220 168.013 146.652  0.00  0.00    -0.307 N 
HETATM    6  C   UNK     0     170.114 165.703 147.722  0.00  0.00     0.059 A 
HETATM    7  C   UNK     0     170.098 166.978 146.857  0.00  0.00     0.052 A 
HETATM    8  C   UNK     0     173.277 167.013 148.223  0.00  0.00     0.091 A 
HETATM    9  C   UNK     0     172.663 165.731 148.817  0.00  0.00     0.201 A 
HETATM   10  C   UNK     0     172.635 168.028 147.260  0.00  0.00     0.198 A 
HETATM   11  C   UNK     0     168.828 164.748 147.803  0.00  0.00     0.079 A 
HETATM   12  C   UNK     0     168.796 167.385 146.015  0.00  0.00     0.050 A 
HETATM   13  C   UNK     0     170.883 169.187 145.714  0.00  0.00     0.132 C 
HETATM   14  C   UNK     0     167.508 165.124 146.973  0.00  0.00     0.020 A 
HETATM   15  C   UNK     0     167.492 166.452 146.072  0.00  0.00     0.040 A 
ENDROOT
BRANCH   4  16
HETATM   16  C   UNK     0     170.949 163.838 149.341  0.00  0.00     0.021 A 
HETATM   17  C   UNK     0     171.155 162.483 148.638  0.00  0.00     0.040 A 
HETATM   18  C   UNK     0     170.848 161.173 149.386  0.00  0.00     0.006 A 
HETATM   19  C   UNK     0     170.336 161.217 150.837  0.00  0.00     0.001 A 
HETATM   20  C   UNK     0     170.130 162.571 151.541  0.00  0.00     0.006 A 
HETATM   21  C   UNK     0     170.437 163.881 150.793  0.00  0.00     0.040 A 
ENDBRANCH   4  16
TORSDOF 1
ENDMDL
MODEL 7
REMARK VINA RESULT:      -5.7     34.722     37.179
REMARK  1 active torsions:
REMARK  status: ('A' for Active; 'I' for Inactive)
REMARK    1  A    between atoms: N_4  and  C_11 
ROOT
HETATM    1 Cl   UNK     0     176.030 149.923 147.669  0.00  0.00    -0.091 Cl
HETATM    2  O   UNK     0     178.691 148.923 154.969  0.00  0.00    -0.171 OA
HETATM    3  O   UNK     0     177.074 153.818 155.509  0.00  0.00    -0.171 OA
HETATM    4  N   UNK     0     177.679 149.750 152.712  0.00  0.00    -0.295 N 
HETATM    5  N   UNK     0     176.599 153.018 153.072  0.00  0.00    -0.307 N 
HETATM    6  C   UNK     0     177.016 150.663 151.664  0.00  0.00     0.059 A 
HETATM    7  C   UNK     0     176.536 152.118 151.824  0.00  0.00     0.052 A 
HETATM    8  C   UNK     0     177.794 151.372 154.960  0.00  0.00     0.091 A 
HETATM    9  C   UNK     0     178.026 150.065 154.179  0.00  0.00     0.201 A 
HETATM   10  C   UNK     0     177.160 152.686 154.468  0.00  0.00     0.198 A 
HETATM   11  C   UNK     0     176.857 149.893 150.266  0.00  0.00     0.079 A 
HETATM   12  C   UNK     0     175.863 152.902 150.598  0.00  0.00     0.050 A 
HETATM   13  C   UNK     0     176.028 154.437 152.902  0.00  0.00     0.132 C 
HETATM   14  C   UNK     0     176.189 150.648 149.018  0.00  0.00     0.020 A 
HETATM   15  C   UNK     0     175.689 152.163 149.185  0.00  0.00     0.040 A 
ENDROOT
BRANCH   4  16
HETATM   16  C   UNK     0     178.044 148.334 152.229  0.00  0.00     0.021 A 
HETATM   17  C   UNK     0     177.035 147.182 152.387  0.00  0.00     0.040 A 
HETATM   18  C   UNK     0     177.400 145.766 151.904  0.00  0.00     0.006 A 
HETATM   19  C   UNK     0     178.774 145.502 151.263  0.00  0.00     0.001 A 
HETATM   20  C   UNK     0     179.785 146.654 151.105  0.00  0.00     0.006 A 
HETATM   21  C   UNK     0     179.419 148.069 151.588  0.00  0.00     0.040 A 
ENDBRANCH   4  16
TORSDOF 1
ENDMDL
MODEL 8
REMARK VINA RESULT:      -5.5     35.251     37.736
REMARK  1 active torsions:
REMARK  status: ('A' for Active; 'I' for Inactive)
REMARK    1  A    between atoms: N_4  and  C_11 
ROOT
HETATM    1 Cl   UNK     0     178.106 151.980 148.509  0.00  0.00    -0.091 Cl
HETATM    2  O   UNK     0     172.778 152.357 154.239  0.00  0.00    -0.171 OA
HETATM    3  O   UNK     0     169.590 153.405 150.289  0.00  0.00    -0.171 OA
HETATM    4  N   UNK     0     174.134 152.347 152.012  0.00  0.00    -0.295 N 
HETATM    5  N   UNK     0     172.006 153.046 149.374  0.00  0.00    -0.307 N 
HETATM    6  C   UNK     0     174.466 152.451 150.512  0.00  0.00     0.059 A 
HETATM    7  C   UNK     0     173.519 152.762 149.338  0.00  0.00     0.052 A 
HETATM    8  C   UNK     0     171.408 152.859 152.079  0.00  0.00     0.091 A 
HETATM    9  C   UNK     0     172.773 152.529 152.709  0.00  0.00     0.201 A 
HETATM   10  C   UNK     0     171.067 153.089 150.595  0.00  0.00     0.198 A 
HETATM   11  C   UNK     0     176.027 152.181 150.261  0.00  0.00     0.079 A 
HETATM   12  C   UNK     0     174.067 152.825 147.832  0.00  0.00     0.050 A 
HETATM   13  C   UNK     0     171.345 153.324 148.012  0.00  0.00     0.132 C 
HETATM   14  C   UNK     0     176.610 152.236 148.767  0.00  0.00     0.020 A 
HETATM   15  C   UNK     0     175.623 152.560 147.544  0.00  0.00     0.040 A 
ENDROOT
BRANCH   4  16
HETATM   16  C   UNK     0     175.320 152.018 152.938  0.00  0.00     0.021 A 
HETATM   17  C   UNK     0     176.181 153.154 153.521  0.00  0.00     0.040 A 
HETATM   18  C   UNK     0     177.367 152.825 154.446  0.00  0.00     0.006 A 
HETATM   19  C   UNK     0     177.692 151.360 154.789  0.00  0.00     0.001 A 
HETATM   20  C   UNK     0     176.831 150.223 154.206  0.00  0.00     0.006 A 
HETATM   21  C   UNK     0     175.646 150.552 153.281  0.00  0.00     0.040 A 
ENDBRANCH   4  16
TORSDOF 1
ENDMDL
MODEL 9
REMARK VINA RESULT:      -5.5     43.617     45.565
REMARK  1 active torsions:
REMARK  status: ('A' for Active; 'I' for Inactive)
REMARK    1  A    between atoms: N_4  and  C_11 
ROOT
HETATM    1 Cl   UNK     0     163.064 163.289 145.399  0.00  0.00    -0.091 Cl
HETATM    2  O   UNK     0     156.181 161.567 148.720  0.00  0.00    -0.171 OA
HETATM    3  O   UNK     0     157.284 165.740 151.589  0.00  0.00    -0.171 OA
HETATM    4  N   UNK     0     158.477 162.547 147.967  0.00  0.00    -0.295 N 
HETATM    5  N   UNK     0     159.213 165.334 149.882  0.00  0.00    -0.307 N 
HETATM    6  C   UNK     0     159.714 163.461 147.897  0.00  0.00     0.059 A 
HETATM    7  C   UNK     0     160.042 164.701 148.749  0.00  0.00     0.052 A 
HETATM    8  C   UNK     0     156.983 163.687 150.008  0.00  0.00     0.091 A 
HETATM    9  C   UNK     0     157.261 162.648 148.906  0.00  0.00     0.201 A 
HETATM   10  C   UNK     0     157.851 164.882 150.442  0.00  0.00     0.198 A 
HETATM   11  C   UNK     0     160.721 162.959 146.753  0.00  0.00     0.079 A 
HETATM   12  C   UNK     0     161.399 165.525 148.517  0.00  0.00     0.050 A 
HETATM   13  C   UNK     0     159.827 166.583 150.542  0.00  0.00     0.132 C 
HETATM   14  C   UNK     0     162.087 163.758 146.493  0.00  0.00     0.020 A 
HETATM   15  C   UNK     0     162.429 165.051 147.381  0.00  0.00     0.040 A 
ENDROOT
BRANCH   4  16
HETATM   16  C   UNK     0     158.451 161.379 146.965  0.00  0.00     0.021 A 
HETATM   17  C   UNK     0     157.794 161.561 145.584  0.00  0.00     0.040 A 
HETATM   18  C   UNK     0     157.769 160.392 144.582  0.00  0.00     0.006 A 
HETATM   19  C   UNK     0     158.400 159.041 144.960  0.00  0.00     0.001 A 
HETATM   20  C   UNK     0     159.058 158.857 146.342  0.00  0.00     0.006 A 
HETATM   21  C   UNK     0     159.083 160.026 147.343  0.00  0.00     0.040 A 
ENDBRANCH   4  16
TORSDOF 1
ENDMDL
MODEL 10
REMARK VINA RESULT:      -5.4     32.287     34.063
REMARK  1 active torsions:
REMARK  status: ('A' for Active; 'I' for Inactive)
REMARK    1  A    between atoms: N_4  and  C_11 
ROOT
HETATM    1 Cl   UNK     0     166.634 166.222 145.331  0.00  0.00    -0.091 Cl
HETATM    2  O   UNK     0     173.474 168.014 148.705  0.00  0.00    -0.171 OA
HETATM    3  O   UNK     0     172.308 163.932 151.679  0.00  0.00    -0.171 OA
HETATM    4  N   UNK     0     171.185 167.021 147.946  0.00  0.00    -0.295 N 
HETATM    5  N   UNK     0     170.406 164.296 149.931  0.00  0.00    -0.307 N 
HETATM    6  C   UNK     0     169.945 166.111 147.884  0.00  0.00     0.059 A 
HETATM    7  C   UNK     0     169.598 164.898 148.767  0.00  0.00     0.052 A 
HETATM    8  C   UNK     0     172.642 165.936 150.043  0.00  0.00     0.091 A 
HETATM    9  C   UNK     0     172.386 166.943 148.906  0.00  0.00     0.201 A 
HETATM   10  C   UNK     0     171.761 164.758 150.499  0.00  0.00     0.198 A 
HETATM   11  C   UNK     0     168.958 166.583 146.710  0.00  0.00     0.079 A 
HETATM   12  C   UNK     0     168.241 164.074 148.539  0.00  0.00     0.050 A 
HETATM   13  C   UNK     0     169.777 163.070 150.619  0.00  0.00     0.132 C 
HETATM   14  C   UNK     0     167.592 165.782 146.454  0.00  0.00     0.020 A 
HETATM   15  C   UNK     0     167.231 164.518 147.374  0.00  0.00     0.040 A 
ENDROOT
BRANCH   4  16
HETATM   16  C   UNK     0     171.231 168.159 146.910  0.00  0.00     0.021 A 
HETATM   17  C   UNK     0     170.609 169.529 147.241  0.00  0.00     0.040 A 
HETATM   18  C   UNK     0     170.656 170.667 146.205  0.00  0.00     0.006 A 
HETATM   19  C   UNK     0     171.324 170.436 144.838  0.00  0.00     0.001 A 
HETATM   20  C   UNK     0     171.946 169.066 144.506  0.00  0.00     0.006 A 
HETATM   21  C   UNK     0     171.900 167.929 145.541  0.00  0.00     0.040 A 
ENDBRANCH   4  16
TORSDOF 1
ENDMDL
