MODEL 1
REMARK VINA RESULT:      -7.3      0.000      0.000
REMARK  1 active torsions:
REMARK  status: ('A' for Active; 'I' for Inactive)
REMARK    1  A    between atoms: N_7  and  C_15 
ROOT
HETATM    1 Cl   UNK     0     132.238 151.228 160.858  0.00  0.00    -0.143 Cl
HETATM    2  O   UNK     0     128.597 157.621 159.300  0.00  0.00    -0.168 OA
HETATM    3  N   UNK     0     130.680 156.061 159.457  0.00  0.00    -0.223 NA
HETATM    4  N   UNK     0     128.391 153.775 160.685  0.00  0.00    -0.240 NA
HETATM    5  C   UNK     0     131.118 153.450 160.289  0.00  0.00     0.042 A 
HETATM    6  C   UNK     0     131.549 154.819 159.730  0.00  0.00     0.064 A 
HETATM    7  C   UNK     0     129.713 152.986 160.714  0.00  0.00     0.080 A 
HETATM    8  C   UNK     0     129.617 151.541 161.238  0.00  0.00     0.001 A 
HETATM    9  C   UNK     0     132.188 152.273 160.501  0.00  0.00     0.067 A 
HETATM   10  C   UNK     0     133.079 155.105 159.344  0.00  0.00     0.052 A 
HETATM   11  C   UNK     0     128.148 155.224 160.223  0.00  0.00     0.146 A 
HETATM   12  C   UNK     0     133.726 152.526 160.126  0.00  0.00     0.114 A 
HETATM   13  C   UNK     0     129.167 156.241 159.677  0.00  0.00     0.232 A 
HETATM   14  C   UNK     0     134.175 153.951 159.543  0.00  0.00     0.058 A 
HETATM   15  C   UNK     0     130.879 150.661 161.310  0.00  0.00     0.022 A 
HETATM   16  C   UNK     0     128.257 150.974 161.690  0.00  0.00     0.028 A 
HETATM   17  C   UNK     0     130.783 149.217 161.834  0.00  0.00     0.037 A 
HETATM   18  C   UNK     0     128.161 149.529 162.214  0.00  0.00     0.005 A 
HETATM   19  C   UNK     0     129.424 148.651 162.285  0.00  0.00     0.006 A 
ENDROOT
BRANCH  12  20
HETATM   20  N   UNK     0     134.767 151.407 160.323  0.00  0.00    -0.117 N 
HETATM   21  O   UNK     0     135.649 151.390 161.585  0.00  0.00    -0.532 OA
HETATM   22  O   UNK     0     134.923 150.306 159.258  0.00  0.00    -0.532 OA
ENDBRANCH  12  20
TORSDOF 1
ENDMDL
MODEL 2
REMARK VINA RESULT:      -7.3      2.608      6.865
REMARK  1 active torsions:
REMARK  status: ('A' for Active; 'I' for Inactive)
REMARK    1  A    between atoms: N_7  and  C_15 
ROOT
HETATM    1 Cl   UNK     0     130.017 152.814 160.861  0.00  0.00    -0.143 Cl
HETATM    2  O   UNK     0     136.189 148.571 161.534  0.00  0.00    -0.168 OA
HETATM    3  N   UNK     0     133.651 149.115 161.783  0.00  0.00    -0.223 NA
HETATM    4  N   UNK     0     134.546 152.110 160.300  0.00  0.00    -0.240 NA
HETATM    5  C   UNK     0     132.036 151.280 161.145  0.00  0.00     0.042 A 
HETATM    6  C   UNK     0     132.312 149.873 161.708  0.00  0.00     0.064 A 
HETATM    7  C   UNK     0     133.030 152.275 160.519  0.00  0.00     0.080 A 
HETATM    8  C   UNK     0     132.429 153.613 160.049  0.00  0.00     0.001 A 
HETATM    9  C   UNK     0     130.555 151.896 161.160  0.00  0.00     0.067 A 
HETATM   10  C   UNK     0     131.127 148.985 162.324  0.00  0.00     0.052 A 
HETATM   11  C   UNK     0     135.442 150.909 160.654  0.00  0.00     0.146 A 
HETATM   12  C   UNK     0     129.346 151.036 161.769  0.00  0.00     0.114 A 
HETATM   13  C   UNK     0     135.044 149.576 161.314  0.00  0.00     0.232 A 
HETATM   14  C   UNK     0     129.634 149.571 162.355  0.00  0.00     0.058 A 
HETATM   15  C   UNK     0     130.922 153.883 160.220  0.00  0.00     0.022 A 
HETATM   16  C   UNK     0     133.335 154.681 159.408  0.00  0.00     0.028 A 
HETATM   17  C   UNK     0     130.321 155.221 159.750  0.00  0.00     0.037 A 
HETATM   18  C   UNK     0     132.733 156.019 158.937  0.00  0.00     0.005 A 
HETATM   19  C   UNK     0     131.227 156.288 159.109  0.00  0.00     0.006 A 
ENDROOT
BRANCH  12  20
HETATM   20  N   UNK     0     127.918 151.613 161.790  0.00  0.00    -0.117 N 
HETATM   21  O   UNK     0     126.997 151.435 160.569  0.00  0.00    -0.532 OA
HETATM   22  O   UNK     0     127.412 152.368 163.033  0.00  0.00    -0.532 OA
ENDBRANCH  12  20
TORSDOF 1
ENDMDL
MODEL 3
REMARK VINA RESULT:      -6.9     54.149     55.329
REMARK  1 active torsions:
REMARK  status: ('A' for Active; 'I' for Inactive)
REMARK    1  A    between atoms: N_7  and  C_15 
ROOT
HETATM    1 Cl   UNK     0     159.571 188.369 190.509  0.00  0.00    -0.143 Cl
HETATM    2  O   UNK     0     156.200 188.718 197.222  0.00  0.00    -0.168 OA
HETATM    3  N   UNK     0     156.691 189.478 194.777  0.00  0.00    -0.223 NA
HETATM    4  N   UNK     0     158.895 186.811 194.803  0.00  0.00    -0.240 NA
HETATM    5  C   UNK     0     158.359 188.593 192.744  0.00  0.00     0.042 A 
HETATM    6  C   UNK     0     157.301 189.525 193.363  0.00  0.00     0.064 A 
HETATM    7  C   UNK     0     159.068 187.386 193.384  0.00  0.00     0.080 A 
HETATM    8  C   UNK     0     160.086 186.656 192.488  0.00  0.00     0.001 A 
HETATM    9  C   UNK     0     158.868 188.812 191.238  0.00  0.00     0.067 A 
HETATM   10  C   UNK     0     156.679 190.740 192.521  0.00  0.00     0.052 A 
HETATM   11  C   UNK     0     157.969 187.302 195.931  0.00  0.00     0.146 A 
HETATM   12  C   UNK     0     158.267 190.017 190.367  0.00  0.00     0.114 A 
HETATM   13  C   UNK     0     156.988 188.490 195.920  0.00  0.00     0.232 A 
HETATM   14  C   UNK     0     157.165 190.987 191.013  0.00  0.00     0.058 A 
HETATM   15  C   UNK     0     160.338 187.147 191.050  0.00  0.00     0.022 A 
HETATM   16  C   UNK     0     160.852 185.434 193.029  0.00  0.00     0.028 A 
HETATM   17  C   UNK     0     161.355 186.418 190.154  0.00  0.00     0.037 A 
HETATM   18  C   UNK     0     161.870 184.705 192.132  0.00  0.00     0.005 A 
HETATM   19  C   UNK     0     162.121 185.196 190.695  0.00  0.00     0.006 A 
ENDROOT
BRANCH  12  20
HETATM   20  N   UNK     0     158.745 190.241 188.920  0.00  0.00    -0.117 N 
HETATM   21  O   UNK     0     157.985 189.592 187.749  0.00  0.00    -0.532 OA
HETATM   22  O   UNK     0     159.983 191.114 188.645  0.00  0.00    -0.532 OA
ENDBRANCH  12  20
TORSDOF 1
ENDMDL
MODEL 4
REMARK VINA RESULT:      -6.8      3.301      5.479
REMARK  1 active torsions:
REMARK  status: ('A' for Active; 'I' for Inactive)
REMARK    1  A    between atoms: N_7  and  C_15 
ROOT
HETATM    1 Cl   UNK     0     132.433 150.821 161.140  0.00  0.00    -0.143 Cl
HETATM    2  O   UNK     0     136.798 156.200 158.214  0.00  0.00    -0.168 OA
HETATM    3  N   UNK     0     134.536 155.098 158.897  0.00  0.00    -0.223 NA
HETATM    4  N   UNK     0     136.573 152.542 160.035  0.00  0.00    -0.240 NA
HETATM    5  C   UNK     0     133.804 152.716 160.119  0.00  0.00     0.042 A 
HETATM    6  C   UNK     0     133.526 154.081 159.462  0.00  0.00     0.064 A 
HETATM    7  C   UNK     0     135.159 152.031 160.374  0.00  0.00     0.080 A 
HETATM    8  C   UNK     0     135.094 150.654 161.059  0.00  0.00     0.001 A 
HETATM    9  C   UNK     0     132.600 151.797 160.648  0.00  0.00     0.067 A 
HETATM   10  C   UNK     0     132.026 154.621 159.288  0.00  0.00     0.052 A 
HETATM   11  C   UNK     0     136.979 153.864 159.357  0.00  0.00     0.146 A 
HETATM   12  C   UNK     0     131.088 152.306 160.489  0.00  0.00     0.114 A 
HETATM   13  C   UNK     0     136.073 155.001 158.851  0.00  0.00     0.232 A 
HETATM   14  C   UNK     0     130.799 153.727 159.805  0.00  0.00     0.058 A 
HETATM   15  C   UNK     0     133.730 150.048 161.442  0.00  0.00     0.022 A 
HETATM   16  C   UNK     0     136.392 149.881 161.361  0.00  0.00     0.028 A 
HETATM   17  C   UNK     0     133.665 148.670 162.127  0.00  0.00     0.037 A 
HETATM   18  C   UNK     0     136.325 148.503 162.047  0.00  0.00     0.005 A 
HETATM   19  C   UNK     0     134.962 147.898 162.429  0.00  0.00     0.006 A 
ENDROOT
BRANCH  12  20
HETATM   20  N   UNK     0     129.920 151.435 160.991  0.00  0.00    -0.117 N 
HETATM   21  O   UNK     0     129.421 151.578 162.441  0.00  0.00    -0.532 OA
HETATM   22  O   UNK     0     129.253 150.422 160.043  0.00  0.00    -0.532 OA
ENDBRANCH  12  20
TORSDOF 1
ENDMDL
MODEL 5
REMARK VINA RESULT:      -6.6      2.802      4.898
REMARK  1 active torsions:
REMARK  status: ('A' for Active; 'I' for Inactive)
REMARK    1  A    between atoms: N_7  and  C_15 
ROOT
HETATM    1 Cl   UNK     0     130.254 151.688 161.457  0.00  0.00    -0.143 Cl
HETATM    2  O   UNK     0     134.367 156.733 157.692  0.00  0.00    -0.168 OA
HETATM    3  N   UNK     0     132.182 155.761 158.730  0.00  0.00    -0.223 NA
HETATM    4  N   UNK     0     134.263 153.178 159.717  0.00  0.00    -0.240 NA
HETATM    5  C   UNK     0     131.540 153.473 160.163  0.00  0.00     0.042 A 
HETATM    6  C   UNK     0     131.223 154.815 159.478  0.00  0.00     0.064 A 
HETATM    7  C   UNK     0     132.892 152.744 160.269  0.00  0.00     0.080 A 
HETATM    8  C   UNK     0     132.871 151.404 161.028  0.00  0.00     0.001 A 
HETATM    9  C   UNK     0     130.387 152.631 160.896  0.00  0.00     0.067 A 
HETATM   10  C   UNK     0     129.733 155.409 159.478  0.00  0.00     0.052 A 
HETATM   11  C   UNK     0     134.619 154.448 158.922  0.00  0.00     0.146 A 
HETATM   12  C   UNK     0     128.886 153.195 160.915  0.00  0.00     0.114 A 
HETATM   13  C   UNK     0     133.693 155.597 158.483  0.00  0.00     0.232 A 
HETATM   14  C   UNK     0     128.557 154.593 160.202  0.00  0.00     0.058 A 
HETATM   15  C   UNK     0     131.552 150.876 161.622  0.00  0.00     0.022 A 
HETATM   16  C   UNK     0     134.170 150.593 161.193  0.00  0.00     0.028 A 
HETATM   17  C   UNK     0     131.532 149.536 162.381  0.00  0.00     0.037 A 
HETATM   18  C   UNK     0     134.149 149.253 161.953  0.00  0.00     0.005 A 
HETATM   19  C   UNK     0     132.830 148.725 162.546  0.00  0.00     0.006 A 
ENDROOT
BRANCH  12  20
HETATM   20  N   UNK     0     127.768 152.399 161.615  0.00  0.00    -0.117 N 
HETATM   21  O   UNK     0     126.998 151.312 160.842  0.00  0.00    -0.532 OA
HETATM   22  O   UNK     0     127.421 152.691 163.086  0.00  0.00    -0.532 OA
ENDBRANCH  12  20
TORSDOF 1
ENDMDL
MODEL 6
REMARK VINA RESULT:      -6.5      3.080      4.585
REMARK  1 active torsions:
REMARK  status: ('A' for Active; 'I' for Inactive)
REMARK    1  A    between atoms: N_7  and  C_15 
ROOT
HETATM    1 Cl   UNK     0     129.288 152.544 161.214  0.00  0.00    -0.143 Cl
HETATM    2  O   UNK     0     134.057 156.603 157.051  0.00  0.00    -0.168 OA
HETATM    3  N   UNK     0     133.035 154.407 158.016  0.00  0.00    -0.223 NA
HETATM    4  N   UNK     0     130.902 156.580 159.658  0.00  0.00    -0.240 NA
HETATM    5  C   UNK     0     130.962 153.808 159.761  0.00  0.00     0.042 A 
HETATM    6  C   UNK     0     132.128 153.455 158.818  0.00  0.00     0.064 A 
HETATM    7  C   UNK     0     130.417 155.198 160.135  0.00  0.00     0.080 A 
HETATM    8  C   UNK     0     129.229 155.208 161.115  0.00  0.00     0.001 A 
HETATM    9  C   UNK     0     130.133 152.657 160.510  0.00  0.00     0.067 A 
HETATM   10  C   UNK     0     132.544 151.927 158.558  0.00  0.00     0.052 A 
HETATM   11  C   UNK     0     132.052 156.913 158.689  0.00  0.00     0.146 A 
HETATM   12  C   UNK     0     130.522 151.119 160.273  0.00  0.00     0.114 A 
HETATM   13  C   UNK     0     133.002 155.945 157.959  0.00  0.00     0.232 A 
HETATM   14  C   UNK     0     131.736 150.752 159.291  0.00  0.00     0.058 A 
HETATM   15  C   UNK     0     128.664 153.881 161.655  0.00  0.00     0.022 A 
HETATM   16  C   UNK     0     128.606 156.547 161.555  0.00  0.00     0.028 A 
HETATM   17  C   UNK     0     127.477 153.892 162.635  0.00  0.00     0.037 A 
HETATM   18  C   UNK     0     127.418 156.556 162.536  0.00  0.00     0.005 A 
HETATM   19  C   UNK     0     126.854 155.229 163.075  0.00  0.00     0.006 A 
ENDROOT
BRANCH  12  20
HETATM   20  N   UNK     0     129.735 150.002 160.985  0.00  0.00    -0.117 N 
HETATM   21  O   UNK     0     130.189 149.502 162.369  0.00  0.00    -0.532 OA
HETATM   22  O   UNK     0     128.495 149.386 160.312  0.00  0.00    -0.532 OA
ENDBRANCH  12  20
TORSDOF 1
ENDMDL
MODEL 7
REMARK VINA RESULT:      -6.3     40.426     43.105
REMARK  1 active torsions:
REMARK  status: ('A' for Active; 'I' for Inactive)
REMARK    1  A    between atoms: N_7  and  C_15 
ROOT
HETATM    1 Cl   UNK     0     164.151 182.105 162.648  0.00  0.00    -0.143 Cl
HETATM    2  O   UNK     0     160.597 178.803 156.902  0.00  0.00    -0.168 OA
HETATM    3  N   UNK     0     161.819 180.756 158.122  0.00  0.00    -0.223 NA
HETATM    4  N   UNK     0     162.024 178.486 160.725  0.00  0.00    -0.240 NA
HETATM    5  C   UNK     0     162.959 181.097 160.629  0.00  0.00     0.042 A 
HETATM    6  C   UNK     0     162.557 181.554 159.214  0.00  0.00     0.064 A 
HETATM    7  C   UNK     0     162.722 179.733 161.301  0.00  0.00     0.080 A 
HETATM    8  C   UNK     0     163.253 179.596 162.740  0.00  0.00     0.001 A 
HETATM    9  C   UNK     0     163.732 182.090 161.625  0.00  0.00     0.067 A 
HETATM   10  C   UNK     0     162.900 183.033 158.697  0.00  0.00     0.052 A 
HETATM   11  C   UNK     0     161.391 178.297 159.334  0.00  0.00     0.146 A 
HETATM   12  C   UNK     0     164.090 183.576 161.141  0.00  0.00     0.114 A 
HETATM   13  C   UNK     0     161.300 179.308 158.175  0.00  0.00     0.232 A 
HETATM   14  C   UNK     0     163.672 184.050 159.667  0.00  0.00     0.058 A 
HETATM   15  C   UNK     0     163.967 180.782 163.414  0.00  0.00     0.022 A 
HETATM   16  C   UNK     0     163.069 178.272 163.506  0.00  0.00     0.028 A 
HETATM   17  C   UNK     0     164.498 180.645 164.853  0.00  0.00     0.037 A 
HETATM   18  C   UNK     0     163.600 178.135 164.946  0.00  0.00     0.005 A 
HETATM   19  C   UNK     0     164.314 179.321 165.619  0.00  0.00     0.006 A 
ENDROOT
BRANCH  12  20
HETATM   20  N   UNK     0     164.832 184.541 162.085  0.00  0.00    -0.117 N 
HETATM   21  O   UNK     0     164.036 185.538 162.947  0.00  0.00    -0.532 OA
HETATM   22  O   UNK     0     166.369 184.507 162.167  0.00  0.00    -0.532 OA
ENDBRANCH  12  20
TORSDOF 1
ENDMDL
MODEL 8
REMARK VINA RESULT:      -6.3     70.358     73.228
REMARK  1 active torsions:
REMARK  status: ('A' for Active; 'I' for Inactive)
REMARK    1  A    between atoms: N_7  and  C_15 
ROOT
HETATM    1 Cl   UNK     0     193.747 190.100 175.169  0.00  0.00    -0.143 Cl
HETATM    2  O   UNK     0     188.655 189.641 169.655  0.00  0.00    -0.168 OA
HETATM    3  N   UNK     0     189.574 190.410 171.970  0.00  0.00    -0.223 NA
HETATM    4  N   UNK     0     192.367 188.598 171.027  0.00  0.00    -0.240 NA
HETATM    5  C   UNK     0     191.938 190.020 173.371  0.00  0.00     0.042 A 
HETATM    6  C   UNK     0     190.520 190.588 173.173  0.00  0.00     0.064 A 
HETATM    7  C   UNK     0     192.760 189.135 172.417  0.00  0.00     0.080 A 
HETATM    8  C   UNK     0     194.160 188.733 172.917  0.00  0.00     0.001 A 
HETATM    9  C   UNK     0     192.766 190.325 174.711  0.00  0.00     0.067 A 
HETATM   10  C   UNK     0     189.833 191.499 174.300  0.00  0.00     0.052 A 
HETATM   11  C   UNK     0     191.055 188.815 170.250  0.00  0.00     0.146 A 
HETATM   12  C   UNK     0     192.110 191.232 175.858  0.00  0.00     0.114 A 
HETATM   13  C   UNK     0     189.812 189.621 170.669  0.00  0.00     0.232 A 
HETATM   14  C   UNK     0     190.633 191.823 175.651  0.00  0.00     0.058 A 
HETATM   15  C   UNK     0     194.654 189.216 174.293  0.00  0.00     0.022 A 
HETATM   16  C   UNK     0     195.066 187.849 172.040  0.00  0.00     0.028 A 
HETATM   17  C   UNK     0     196.053 188.814 174.794  0.00  0.00     0.037 A 
HETATM   18  C   UNK     0     196.466 187.447 172.541  0.00  0.00     0.005 A 
HETATM   19  C   UNK     0     196.959 187.930 173.917  0.00  0.00     0.006 A 
ENDROOT
BRANCH  12  20
HETATM   20  N   UNK     0     192.892 191.534 177.151  0.00  0.00    -0.117 N 
HETATM   21  O   UNK     0     193.868 192.724 177.199  0.00  0.00    -0.532 OA
HETATM   22  O   UNK     0     192.697 190.646 178.393  0.00  0.00    -0.532 OA
ENDBRANCH  12  20
TORSDOF 1
ENDMDL
MODEL 9
REMARK VINA RESULT:      -6.3     55.242     57.431
REMARK  1 active torsions:
REMARK  status: ('A' for Active; 'I' for Inactive)
REMARK    1  A    between atoms: N_7  and  C_15 
ROOT
HETATM    1 Cl   UNK     0     182.654 163.753 185.376  0.00  0.00    -0.143 Cl
HETATM    2  O   UNK     0     177.138 160.126 188.976  0.00  0.00    -0.168 OA
HETATM    3  N   UNK     0     178.759 162.117 188.520  0.00  0.00    -0.223 NA
HETATM    4  N   UNK     0     179.905 160.090 185.961  0.00  0.00    -0.240 NA
HETATM    5  C   UNK     0     180.771 162.627 186.678  0.00  0.00     0.042 A 
HETATM    6  C   UNK     0     179.868 162.971 187.878  0.00  0.00     0.064 A 
HETATM    7  C   UNK     0     180.787 161.345 185.826  0.00  0.00     0.080 A 
HETATM    8  C   UNK     0     181.823 161.314 184.686  0.00  0.00     0.001 A 
HETATM    9  C   UNK     0     181.878 163.665 186.158  0.00  0.00     0.067 A 
HETATM   10  C   UNK     0     180.010 164.376 188.639  0.00  0.00     0.052 A 
HETATM   11  C   UNK     0     178.789 159.807 186.983  0.00  0.00     0.146 A 
HETATM   12  C   UNK     0     182.047 165.078 186.896  0.00  0.00     0.114 A 
HETATM   13  C   UNK     0     178.279 160.709 188.122  0.00  0.00     0.232 A 
HETATM   14  C   UNK     0     181.107 165.436 188.145  0.00  0.00     0.058 A 
HETATM   15  C   UNK     0     182.757 162.518 184.461  0.00  0.00     0.022 A 
HETATM   16  C   UNK     0     181.925 160.079 183.772  0.00  0.00     0.028 A 
HETATM   17  C   UNK     0     183.792 162.487 183.321  0.00  0.00     0.037 A 
HETATM   18  C   UNK     0     182.961 160.048 182.632  0.00  0.00     0.005 A 
HETATM   19  C   UNK     0     183.894 161.252 182.408  0.00  0.00     0.006 A 
ENDROOT
BRANCH  12  20
HETATM   20  N   UNK     0     183.105 166.086 186.408  0.00  0.00    -0.117 N 
HETATM   21  O   UNK     0     182.739 167.130 185.337  0.00  0.00    -0.532 OA
HETATM   22  O   UNK     0     184.530 166.048 186.992  0.00  0.00    -0.532 OA
ENDBRANCH  12  20
TORSDOF 1
ENDMDL
MODEL 10
REMARK VINA RESULT:      -6.2     46.393     48.958
REMARK  1 active torsions:
REMARK  status: ('A' for Active; 'I' for Inactive)
REMARK    1  A    between atoms: N_7  and  C_15 
ROOT
HETATM    1 Cl   UNK     0     178.633 151.852 152.520  0.00  0.00    -0.143 Cl
HETATM    2  O   UNK     0     179.105 144.348 152.575  0.00  0.00    -0.168 OA
HETATM    3  N   UNK     0     178.375 146.681 153.482  0.00  0.00    -0.223 NA
HETATM    4  N   UNK     0     180.055 147.857 150.695  0.00  0.00    -0.240 NA
HETATM    5  C   UNK     0     178.722 149.306 152.651  0.00  0.00     0.042 A 
HETATM    6  C   UNK     0     178.200 148.207 153.596  0.00  0.00     0.064 A 
HETATM    7  C   UNK     0     179.547 149.150 151.361  0.00  0.00     0.080 A 
HETATM    8  C   UNK     0     179.914 150.460 150.640  0.00  0.00     0.001 A 
HETATM    9  C   UNK     0     178.430 150.855 152.950  0.00  0.00     0.067 A 
HETATM   10  C   UNK     0     177.350 148.581 154.904  0.00  0.00     0.052 A 
HETATM   11  C   UNK     0     179.862 146.400 151.156  0.00  0.00     0.146 A 
HETATM   12  C   UNK     0     177.583 151.264 154.248  0.00  0.00     0.114 A 
HETATM   13  C   UNK     0     179.114 145.877 152.396  0.00  0.00     0.232 A 
HETATM   14  C   UNK     0     177.039 150.119 155.232  0.00  0.00     0.058 A 
HETATM   15  C   UNK     0     179.457 151.812 151.219  0.00  0.00     0.022 A 
HETATM   16  C   UNK     0     180.737 150.419 149.339  0.00  0.00     0.028 A 
HETATM   17  C   UNK     0     179.823 153.123 150.498  0.00  0.00     0.037 A 
HETATM   18  C   UNK     0     181.104 151.731 148.618  0.00  0.00     0.005 A 
HETATM   19  C   UNK     0     180.647 153.081 149.198  0.00  0.00     0.006 A 
ENDROOT
BRANCH  12  20
HETATM   20  N   UNK     0     177.293 152.747 154.549  0.00  0.00    -0.117 N 
HETATM   21  O   UNK     0     176.003 153.402 154.021  0.00  0.00    -0.532 OA
HETATM   22  O   UNK     0     178.293 153.573 155.378  0.00  0.00    -0.532 OA
ENDBRANCH  12  20
TORSDOF 1
ENDMDL
