MODEL 1
REMARK VINA RESULT:      -6.6      0.000      0.000
REMARK  1 active torsions:
REMARK  status: ('A' for Active; 'I' for Inactive)
REMARK    1  A    between atoms: C_7  and  C_10 
ROOT
HETATM    1 Cl   UNK     0     196.534 176.992 158.137  0.00  0.00    -0.091 Cl
HETATM    2  O   UNK     0     202.497 172.614 162.933  0.00  0.00    -0.169 OA
HETATM    3  N   UNK     0     200.604 173.542 161.397  0.00  0.00    -0.307 N 
HETATM    4  N   UNK     0     201.780 176.617 162.463  0.00  0.00    -0.241 NA
HETATM    5  C   UNK     0     199.691 176.073 160.719  0.00  0.00     0.011 A 
HETATM    6  C   UNK     0     199.682 174.534 160.665  0.00  0.00     0.037 A 
HETATM    7  C   UNK     0     200.625 177.000 161.519  0.00  0.00     0.071 A 
HETATM    8  C   UNK     0     202.287 175.212 162.839  0.00  0.00     0.144 A 
HETATM    9  C   UNK     0     201.763 173.843 162.364  0.00  0.00     0.214 A 
HETATM   10  C   UNK     0     198.635 176.933 159.872  0.00  0.00     0.062 A 
HETATM   11  C   UNK     0     198.616 173.749 159.760  0.00  0.00     0.049 A 
HETATM   12  C   UNK     0     200.331 172.051 161.126  0.00  0.00     0.132 C 
HETATM   13  C   UNK     0     197.554 176.181 158.956  0.00  0.00     0.018 A 
HETATM   14  C   UNK     0     197.545 174.577 158.899  0.00  0.00     0.040 A 
ENDROOT
BRANCH   7  15
HETATM   15  C   UNK     0     200.370 178.510 161.354  0.00  0.00    -0.027 A 
HETATM   16  C   UNK     0     199.484 179.256 162.368  0.00  0.00     0.024 A 
HETATM   17  C   UNK     0     199.229 180.766 162.203  0.00  0.00     0.004 A 
HETATM   18  C   UNK     0     199.860 181.529 161.024  0.00  0.00     0.001 A 
HETATM   19  C   UNK     0     200.747 180.782 160.010  0.00  0.00     0.004 A 
HETATM   20  C   UNK     0     201.002 179.273 160.175  0.00  0.00     0.024 A 
ENDBRANCH   7  15
TORSDOF 1
ENDMDL
MODEL 2
REMARK VINA RESULT:      -5.8     84.122     86.087
REMARK  1 active torsions:
REMARK  status: ('A' for Active; 'I' for Inactive)
REMARK    1  A    between atoms: C_7  and  C_10 
ROOT
HETATM    1 Cl   UNK     0     125.959 144.946 191.293  0.00  0.00    -0.091 Cl
HETATM    2  O   UNK     0     120.820 144.992 184.129  0.00  0.00    -0.169 OA
HETATM    3  N   UNK     0     122.036 145.177 186.430  0.00  0.00    -0.307 N 
HETATM    4  N   UNK     0     124.566 143.478 184.790  0.00  0.00    -0.241 NA
HETATM    5  C   UNK     0     124.497 144.363 187.419  0.00  0.00     0.011 A 
HETATM    6  C   UNK     0     123.114 145.033 187.519  0.00  0.00     0.037 A 
HETATM    7  C   UNK     0     125.143 143.671 186.205  0.00  0.00     0.071 A 
HETATM    8  C   UNK     0     123.200 143.930 184.241  0.00  0.00     0.144 A 
HETATM    9  C   UNK     0     122.074 144.686 184.971  0.00  0.00     0.214 A 
HETATM   10  C   UNK     0     125.484 144.318 188.684  0.00  0.00     0.062 A 
HETATM   11  C   UNK     0     122.622 145.705 188.890  0.00  0.00     0.049 A 
HETATM   12  C   UNK     0     120.750 145.909 186.854  0.00  0.00     0.132 C 
HETATM   13  C   UNK     0     125.024 144.980 190.070  0.00  0.00     0.018 A 
HETATM   14  C   UNK     0     123.583 145.679 190.175  0.00  0.00     0.040 A 
ENDROOT
BRANCH   7  15
HETATM   15  C   UNK     0     126.553 143.095 186.435  0.00  0.00    -0.027 A 
HETATM   16  C   UNK     0     126.725 141.621 186.845  0.00  0.00     0.024 A 
HETATM   17  C   UNK     0     128.135 141.046 187.075  0.00  0.00     0.004 A 
HETATM   18  C   UNK     0     129.372 141.944 186.896  0.00  0.00     0.001 A 
HETATM   19  C   UNK     0     129.200 143.419 186.486  0.00  0.00     0.004 A 
HETATM   20  C   UNK     0     127.790 143.994 186.256  0.00  0.00     0.024 A 
ENDBRANCH   7  15
TORSDOF 1
ENDMDL
MODEL 3
REMARK VINA RESULT:      -5.7     34.104     35.104
REMARK  1 active torsions:
REMARK  status: ('A' for Active; 'I' for Inactive)
REMARK    1  A    between atoms: C_7  and  C_10 
ROOT
HETATM    1 Cl   UNK     0     177.235 162.414 189.668  0.00  0.00    -0.091 Cl
HETATM    2  O   UNK     0     183.587 163.609 183.671  0.00  0.00    -0.169 OA
HETATM    3  N   UNK     0     181.738 162.861 185.353  0.00  0.00    -0.307 N 
HETATM    4  N   UNK     0     181.563 166.244 186.064  0.00  0.00    -0.241 NA
HETATM    5  C   UNK     0     180.091 164.165 187.165  0.00  0.00     0.011 A 
HETATM    6  C   UNK     0     180.642 162.928 186.431  0.00  0.00     0.037 A 
HETATM    7  C   UNK     0     180.501 165.640 187.002  0.00  0.00     0.071 A 
HETATM    8  C   UNK     0     182.477 165.519 185.057  0.00  0.00     0.144 A 
HETATM    9  C   UNK     0     182.555 164.014 184.741  0.00  0.00     0.214 A 
HETATM   10  C   UNK     0     178.935 164.021 188.269  0.00  0.00     0.062 A 
HETATM   11  C   UNK     0     180.075 161.462 186.749  0.00  0.00     0.049 A 
HETATM   12  C   UNK     0     182.061 161.455 184.814  0.00  0.00     0.132 C 
HETATM   13  C   UNK     0     178.345 162.570 188.612  0.00  0.00     0.018 A 
HETATM   14  C   UNK     0     178.919 161.281 187.847  0.00  0.00     0.040 A 
ENDROOT
BRANCH   7  15
HETATM   15  C   UNK     0     179.750 166.646 187.894  0.00  0.00    -0.027 A 
HETATM   16  C   UNK     0     180.152 166.815 189.370  0.00  0.00     0.024 A 
HETATM   17  C   UNK     0     179.401 167.821 190.263  0.00  0.00     0.004 A 
HETATM   18  C   UNK     0     178.248 168.656 189.679  0.00  0.00     0.001 A 
HETATM   19  C   UNK     0     177.845 168.487 188.202  0.00  0.00     0.004 A 
HETATM   20  C   UNK     0     178.596 167.482 187.309  0.00  0.00     0.024 A 
ENDBRANCH   7  15
TORSDOF 1
ENDMDL
MODEL 4
REMARK VINA RESULT:      -5.7     45.117     46.444
REMARK  1 active torsions:
REMARK  status: ('A' for Active; 'I' for Inactive)
REMARK    1  A    between atoms: C_7  and  C_10 
ROOT
HETATM    1 Cl   UNK     0     152.638 183.357 173.695  0.00  0.00    -0.091 Cl
HETATM    2  O   UNK     0     158.719 185.991 179.509  0.00  0.00    -0.169 OA
HETATM    3  N   UNK     0     156.654 185.403 178.029  0.00  0.00    -0.307 N 
HETATM    4  N   UNK     0     159.009 183.808 176.058  0.00  0.00    -0.241 NA
HETATM    5  C   UNK     0     156.269 184.001 175.666  0.00  0.00     0.011 A 
HETATM    6  C   UNK     0     155.806 184.827 176.881  0.00  0.00     0.037 A 
HETATM    7  C   UNK     0     157.695 183.548 175.300  0.00  0.00     0.071 A 
HETATM    8  C   UNK     0     159.223 184.587 177.370  0.00  0.00     0.144 A 
HETATM    9  C   UNK     0     158.174 185.297 178.247  0.00  0.00     0.214 A 
HETATM   10  C   UNK     0     155.217 183.489 174.569  0.00  0.00     0.062 A 
HETATM   11  C   UNK     0     154.259 185.197 177.083  0.00  0.00     0.049 A 
HETATM   12  C   UNK     0     155.879 186.190 179.102  0.00  0.00     0.132 C 
HETATM   13  C   UNK     0     153.661 183.841 174.739  0.00  0.00     0.018 A 
HETATM   14  C   UNK     0     153.178 184.702 176.005  0.00  0.00     0.040 A 
ENDROOT
BRANCH   7  15
HETATM   15  C   UNK     0     157.823 182.725 174.005  0.00  0.00    -0.027 A 
HETATM   16  C   UNK     0     158.325 183.396 172.713  0.00  0.00     0.024 A 
HETATM   17  C   UNK     0     158.453 182.573 171.418  0.00  0.00     0.004 A 
HETATM   18  C   UNK     0     158.079 181.080 171.414  0.00  0.00     0.001 A 
HETATM   19  C   UNK     0     157.576 180.409 172.706  0.00  0.00     0.004 A 
HETATM   20  C   UNK     0     157.448 181.231 174.001  0.00  0.00     0.024 A 
ENDBRANCH   7  15
TORSDOF 1
ENDMDL
MODEL 5
REMARK VINA RESULT:      -5.7     26.298     28.335
REMARK  1 active torsions:
REMARK  status: ('A' for Active; 'I' for Inactive)
REMARK    1  A    between atoms: C_7  and  C_10 
ROOT
HETATM    1 Cl   UNK     0     207.777 185.419 184.374  0.00  0.00    -0.091 Cl
HETATM    2  O   UNK     0     199.265 187.208 185.815  0.00  0.00    -0.169 OA
HETATM    3  N   UNK     0     201.700 186.756 184.998  0.00  0.00    -0.307 N 
HETATM    4  N   UNK     0     202.290 186.118 188.348  0.00  0.00    -0.241 NA
HETATM    5  C   UNK     0     204.075 186.014 186.226  0.00  0.00     0.011 A 
HETATM    6  C   UNK     0     203.198 186.400 185.021  0.00  0.00     0.037 A 
HETATM    7  C   UNK     0     203.671 185.888 187.707  0.00  0.00     0.071 A 
HETATM    8  C   UNK     0     200.972 186.530 187.666  0.00  0.00     0.144 A 
HETATM    9  C   UNK     0     200.710 186.814 186.175  0.00  0.00     0.214 A 
HETATM   10  C   UNK     0     205.632 185.676 186.037  0.00  0.00     0.062 A 
HETATM   11  C   UNK     0     203.817 186.474 183.543  0.00  0.00     0.049 A 
HETATM   12  C   UNK     0     201.116 187.099 183.616  0.00  0.00     0.132 C 
HETATM   13  C   UNK     0     206.284 185.740 184.573  0.00  0.00     0.018 A 
HETATM   14  C   UNK     0     205.370 186.142 183.317  0.00  0.00     0.040 A 
ENDROOT
BRANCH   7  15
HETATM   15  C   UNK     0     204.797 185.479 188.675  0.00  0.00    -0.027 A 
HETATM   16  C   UNK     0     205.617 186.559 189.403  0.00  0.00     0.024 A 
HETATM   17  C   UNK     0     206.742 186.150 190.371  0.00  0.00     0.004 A 
HETATM   18  C   UNK     0     207.049 184.661 190.610  0.00  0.00     0.001 A 
HETATM   19  C   UNK     0     206.229 183.579 189.881  0.00  0.00     0.004 A 
HETATM   20  C   UNK     0     205.103 183.989 188.913  0.00  0.00     0.024 A 
ENDBRANCH   7  15
TORSDOF 1
ENDMDL
MODEL 6
REMARK VINA RESULT:      -5.6     65.923     67.695
REMARK  1 active torsions:
REMARK  status: ('A' for Active; 'I' for Inactive)
REMARK    1  A    between atoms: C_7  and  C_10 
ROOT
HETATM    1 Cl   UNK     0     129.685 172.824 169.997  0.00  0.00    -0.091 Cl
HETATM    2  O   UNK     0     138.321 173.380 171.681  0.00  0.00    -0.169 OA
HETATM    3  N   UNK     0     135.836 173.499 170.899  0.00  0.00    -0.307 N 
HETATM    4  N   UNK     0     135.360 171.092 173.341  0.00  0.00    -0.241 NA
HETATM    5  C   UNK     0     133.484 172.225 171.638  0.00  0.00     0.011 A 
HETATM    6  C   UNK     0     134.326 173.211 170.808  0.00  0.00     0.037 A 
HETATM    7  C   UNK     0     133.944 171.281 172.765  0.00  0.00     0.071 A 
HETATM    8  C   UNK     0     136.665 171.799 172.930  0.00  0.00     0.144 A 
HETATM    9  C   UNK     0     136.877 172.870 171.844  0.00  0.00     0.214 A 
HETATM   10  C   UNK     0     131.907 172.072 171.385  0.00  0.00     0.062 A 
HETATM   11  C   UNK     0     133.649 174.113 169.667  0.00  0.00     0.049 A 
HETATM   12  C   UNK     0     136.376 174.554 169.917  0.00  0.00     0.132 C 
HETATM   13  C   UNK     0     131.197 172.958 170.253  0.00  0.00     0.018 A 
HETATM   14  C   UNK     0     132.074 173.987 169.387  0.00  0.00     0.040 A 
ENDROOT
BRANCH   7  15
HETATM   15  C   UNK     0     132.843 170.413 173.401  0.00  0.00    -0.027 A 
HETATM   16  C   UNK     0     132.246 170.804 174.765  0.00  0.00     0.024 A 
HETATM   17  C   UNK     0     131.145 169.935 175.401  0.00  0.00     0.004 A 
HETATM   18  C   UNK     0     130.641 168.676 174.673  0.00  0.00     0.001 A 
HETATM   19  C   UNK     0     131.239 168.284 173.309  0.00  0.00     0.004 A 
HETATM   20  C   UNK     0     132.340 169.153 172.673  0.00  0.00     0.024 A 
ENDBRANCH   7  15
TORSDOF 1
ENDMDL
MODEL 7
REMARK VINA RESULT:      -5.6     30.377     32.235
REMARK  1 active torsions:
REMARK  status: ('A' for Active; 'I' for Inactive)
REMARK    1  A    between atoms: C_7  and  C_10 
ROOT
HETATM    1 Cl   UNK     0     164.744 176.887 154.842  0.00  0.00    -0.091 Cl
HETATM    2  O   UNK     0     172.120 174.665 159.130  0.00  0.00    -0.169 OA
HETATM    3  N   UNK     0     170.021 175.006 157.620  0.00  0.00    -0.307 N 
HETATM    4  N   UNK     0     169.411 177.674 159.739  0.00  0.00    -0.241 NA
HETATM    5  C   UNK     0     167.916 176.813 157.565  0.00  0.00     0.011 A 
HETATM    6  C   UNK     0     168.715 175.598 157.059  0.00  0.00     0.037 A 
HETATM    7  C   UNK     0     168.226 177.737 158.758  0.00  0.00     0.071 A 
HETATM    8  C   UNK     0     170.579 176.670 159.769  0.00  0.00     0.144 A 
HETATM    9  C   UNK     0     170.850 175.483 158.826  0.00  0.00     0.214 A 
HETATM   10  C   UNK     0     166.565 177.274 156.833  0.00  0.00     0.062 A 
HETATM   11  C   UNK     0     168.218 174.759 155.785  0.00  0.00     0.049 A 
HETATM   12  C   UNK     0     170.569 173.774 156.877  0.00  0.00     0.132 C 
HETATM   13  C   UNK     0     166.039 176.458 155.556  0.00  0.00     0.018 A 
HETATM   14  C   UNK     0     166.871 175.192 155.028  0.00  0.00     0.040 A 
ENDROOT
BRANCH   7  15
HETATM   15  C   UNK     0     167.218 178.875 159.002  0.00  0.00    -0.027 A 
HETATM   16  C   UNK     0     166.009 178.647 159.927  0.00  0.00     0.024 A 
HETATM   17  C   UNK     0     165.000 179.785 160.171  0.00  0.00     0.004 A 
HETATM   18  C   UNK     0     165.201 181.151 159.491  0.00  0.00     0.001 A 
HETATM   19  C   UNK     0     166.411 181.379 158.565  0.00  0.00     0.004 A 
HETATM   20  C   UNK     0     167.419 180.241 158.321  0.00  0.00     0.024 A 
ENDBRANCH   7  15
TORSDOF 1
ENDMDL
MODEL 8
REMARK VINA RESULT:      -5.5     58.155     61.039
REMARK  1 active torsions:
REMARK  status: ('A' for Active; 'I' for Inactive)
REMARK    1  A    between atoms: C_7  and  C_10 
ROOT
HETATM    1 Cl   UNK     0     146.324 145.653 150.811  0.00  0.00    -0.091 Cl
HETATM    2  O   UNK     0     144.459 151.821 144.793  0.00  0.00    -0.169 OA
HETATM    3  N   UNK     0     144.660 149.824 146.460  0.00  0.00    -0.307 N 
HETATM    4  N   UNK     0     147.625 151.372 147.349  0.00  0.00    -0.241 NA
HETATM    5  C   UNK     0     146.520 149.037 148.362  0.00  0.00     0.011 A 
HETATM    6  C   UNK     0     145.216 148.897 147.557  0.00  0.00     0.037 A 
HETATM    7  C   UNK     0     147.593 150.138 148.270  0.00  0.00     0.071 A 
HETATM    8  C   UNK     0     146.592 151.809 146.293  0.00  0.00     0.144 A 
HETATM    9  C   UNK     0     145.273 151.120 145.898  0.00  0.00     0.214 A 
HETATM   10  C   UNK     0     146.923 147.951 149.473  0.00  0.00     0.062 A 
HETATM   11  C   UNK     0     144.222 147.663 147.806  0.00  0.00     0.049 A 
HETATM   12  C   UNK     0     143.315 149.400 145.844  0.00  0.00     0.132 C 
HETATM   13  C   UNK     0     145.953 146.704 149.749  0.00  0.00     0.018 A 
HETATM   14  C   UNK     0     144.593 146.558 148.909  0.00  0.00     0.040 A 
ENDROOT
BRANCH   7  15
HETATM   15  C   UNK     0     148.792 149.986 149.224  0.00  0.00    -0.027 A 
HETATM   16  C   UNK     0     148.638 150.337 150.715  0.00  0.00     0.024 A 
HETATM   17  C   UNK     0     149.837 150.185 151.670  0.00  0.00     0.004 A 
HETATM   18  C   UNK     0     151.189 149.681 151.133  0.00  0.00     0.001 A 
HETATM   19  C   UNK     0     151.343 149.329 149.641  0.00  0.00     0.004 A 
HETATM   20  C   UNK     0     150.144 149.482 148.687  0.00  0.00     0.024 A 
ENDBRANCH   7  15
TORSDOF 1
ENDMDL
MODEL 9
REMARK VINA RESULT:      -5.5     20.678     22.256
REMARK  1 active torsions:
REMARK  status: ('A' for Active; 'I' for Inactive)
REMARK    1  A    between atoms: C_7  and  C_10 
ROOT
HETATM    1 Cl   UNK     0     183.212 184.036 150.850  0.00  0.00    -0.091 Cl
HETATM    2  O   UNK     0     185.212 177.853 144.892  0.00  0.00    -0.169 OA
HETATM    3  N   UNK     0     184.970 179.857 146.543  0.00  0.00    -0.307 N 
HETATM    4  N   UNK     0     182.013 178.280 147.411  0.00  0.00    -0.241 NA
HETATM    5  C   UNK     0     183.081 180.635 148.420  0.00  0.00     0.011 A 
HETATM    6  C   UNK     0     184.392 180.784 147.628  0.00  0.00     0.037 A 
HETATM    7  C   UNK     0     182.022 179.520 148.324  0.00  0.00     0.071 A 
HETATM    8  C   UNK     0     183.063 177.849 146.369  0.00  0.00     0.144 A 
HETATM    9  C   UNK     0     184.378 178.550 145.983  0.00  0.00     0.214 A 
HETATM   10  C   UNK     0     182.654 181.722 149.520  0.00  0.00     0.062 A 
HETATM   11  C   UNK     0     185.368 182.032 147.880  0.00  0.00     0.049 A 
HETATM   12  C   UNK     0     186.317 180.293 145.939  0.00  0.00     0.132 C 
HETATM   13  C   UNK     0     183.606 182.983 149.798  0.00  0.00     0.018 A 
HETATM   14  C   UNK     0     184.973 183.139 148.972  0.00  0.00     0.040 A 
ENDROOT
BRANCH   7  15
HETATM   15  C   UNK     0     180.811 179.665 149.264  0.00  0.00    -0.027 A 
HETATM   16  C   UNK     0     180.934 179.263 150.745  0.00  0.00     0.024 A 
HETATM   17  C   UNK     0     179.724 179.408 151.686  0.00  0.00     0.004 A 
HETATM   18  C   UNK     0     178.390 179.954 151.146  0.00  0.00     0.001 A 
HETATM   19  C   UNK     0     178.266 180.357 149.664  0.00  0.00     0.004 A 
HETATM   20  C   UNK     0     179.477 180.212 148.723  0.00  0.00     0.024 A 
ENDBRANCH   7  15
TORSDOF 1
ENDMDL
MODEL 10
REMARK VINA RESULT:      -5.5     74.423     76.223
REMARK  1 active torsions:
REMARK  status: ('A' for Active; 'I' for Inactive)
REMARK    1  A    between atoms: C_7  and  C_10 
ROOT
HETATM    1 Cl   UNK     0     123.141 163.875 174.949  0.00  0.00    -0.091 Cl
HETATM    2  O   UNK     0     130.642 168.028 177.001  0.00  0.00    -0.169 OA
HETATM    3  N   UNK     0     128.452 166.990 176.036  0.00  0.00    -0.307 N 
HETATM    4  N   UNK     0     128.300 165.420 179.117  0.00  0.00    -0.241 NA
HETATM    5  C   UNK     0     126.533 165.226 176.986  0.00  0.00     0.011 A 
HETATM    6  C   UNK     0     127.162 166.156 175.933  0.00  0.00     0.037 A 
HETATM    7  C   UNK     0     127.040 164.898 178.403  0.00  0.00     0.071 A 
HETATM    8  C   UNK     0     129.365 166.400 178.589  0.00  0.00     0.144 A 
HETATM    9  C   UNK     0     129.433 167.098 177.218  0.00  0.00     0.214 A 
HETATM   10  C   UNK     0     125.169 164.438 176.681  0.00  0.00     0.062 A 
HETATM   11  C   UNK     0     126.470 166.365 174.501  0.00  0.00     0.049 A 
HETATM   12  C   UNK     0     128.809 167.826 174.794  0.00  0.00     0.132 C 
HETATM   13  C   UNK     0     124.450 164.623 175.259  0.00  0.00     0.018 A 
HETATM   14  C   UNK     0     125.105 165.593 174.161  0.00  0.00     0.040 A 
ENDROOT
BRANCH   7  15
HETATM   15  C   UNK     0     126.171 163.918 179.214  0.00  0.00    -0.027 A 
HETATM   16  C   UNK     0     124.956 164.437 180.003  0.00  0.00     0.024 A 
HETATM   17  C   UNK     0     124.087 163.458 180.813  0.00  0.00     0.004 A 
HETATM   18  C   UNK     0     124.434 161.958 180.835  0.00  0.00     0.001 A 
HETATM   19  C   UNK     0     125.651 161.438 180.046  0.00  0.00     0.004 A 
HETATM   20  C   UNK     0     126.519 162.418 179.236  0.00  0.00     0.024 A 
ENDBRANCH   7  15
TORSDOF 1
ENDMDL
