MODEL 1
REMARK VINA RESULT:      -7.9      0.000      0.000
REMARK  7 active torsions:
REMARK  status: ('A' for Active; 'I' for Inactive)
REMARK    1  A    between atoms: N_3  and  C_7 
REMARK    2  A    between atoms: N_4  and  C_10 
REMARK    3  A    between atoms: C_7  and  C_11 
REMARK    4  A    between atoms: C_7  and  C_12 
REMARK    5  A    between atoms: C_10  and  C_13 
REMARK    6  A    between atoms: C_13  and  C_22 
REMARK    7  A    between atoms: C_22  and  C_25 
ROOT
HETATM    1  N   UNK     0     134.721 151.870 160.195  0.00  0.00    -0.345 N 
HETATM    2  N   UNK     0     132.192 150.271 160.926  0.00  0.00    -0.365 N 
HETATM    3  C   UNK     0     133.763 152.398 161.280  0.00  0.00     0.125 A 
HETATM    4  C   UNK     0     134.414 150.544 159.477  0.00  0.00     0.125 A 
HETATM    5  C   UNK     0     132.498 151.598 161.645  0.00  0.00     0.122 A 
HETATM    6  C   UNK     0     133.149 149.744 159.842  0.00  0.00     0.122 A 
ENDROOT
BRANCH   1   7
HETATM    7  C   UNK     0     135.985 152.670 159.830  0.00  0.00     0.040 C 
BRANCH   7   8
HETATM    8  C   UNK     0     137.307 152.403 160.575  0.00  0.00    -0.029 A 
HETATM    9  C   UNK     0     137.311 151.540 161.850  0.00  0.00     0.030 A 
HETATM   10  C   UNK     0     138.631 151.274 162.595  0.00  0.00     0.056 A 
HETATM   11  C   UNK     0     139.949 151.870 162.065  0.00  0.00     0.096 A 
HETATM   12  F   UNK     0     141.270 151.604 162.810  0.00  0.00    -0.213 F 
HETATM   13  C   UNK     0     139.945 152.733 160.789  0.00  0.00     0.056 A 
HETATM   14  C   UNK     0     138.623 152.999 160.044  0.00  0.00     0.030 A 
ENDBRANCH   7   8
BRANCH   7  15
HETATM   15  C   UNK     0     135.929 153.735 158.720  0.00  0.00    -0.029 A 
HETATM   16  C   UNK     0     135.729 153.309 157.253  0.00  0.00     0.030 A 
HETATM   17  C   UNK     0     135.672 154.375 156.142  0.00  0.00     0.056 A 
HETATM   18  C   UNK     0     135.815 155.866 156.498  0.00  0.00     0.096 A 
HETATM   19  F   UNK     0     135.759 156.932 155.388  0.00  0.00    -0.213 F 
HETATM   20  C   UNK     0     136.015 156.292 157.965  0.00  0.00     0.056 A 
HETATM   21  C   UNK     0     136.072 155.226 159.076  0.00  0.00     0.030 A 
ENDBRANCH   7  15
ENDBRANCH   1   7
BRANCH   2  22
HETATM   22  C   UNK     0     130.927 149.472 161.292  0.00  0.00     0.097 C 
BRANCH  22  23
HETATM   23  C   UNK     0     129.803 150.138 162.106  0.00  0.00     0.024 C 
BRANCH  23  24
HETATM   24  C   UNK     0     128.732 150.983 161.392  0.00  0.00     0.002 C 
BRANCH  24  25
HETATM   25  C   UNK     0     128.560 152.471 161.749  0.00  0.00     0.000 A 
HETATM   26  C   UNK     0     129.155 153.557 160.833  0.00  0.00     0.000 A 
HETATM   27  C   UNK     0     128.984 155.045 161.190  0.00  0.00     0.000 A 
HETATM   28  C   UNK     0     128.218 155.448 162.464  0.00  0.00     0.000 A 
HETATM   29  C   UNK     0     127.623 154.363 163.381  0.00  0.00     0.000 A 
HETATM   30  C   UNK     0     127.794 152.875 163.023  0.00  0.00     0.000 A 
ENDBRANCH  24  25
ENDBRANCH  23  24
ENDBRANCH  22  23
ENDBRANCH   2  22
TORSDOF 7
ENDMDL
MODEL 2
REMARK VINA RESULT:      -7.7     12.797     15.528
REMARK  7 active torsions:
REMARK  status: ('A' for Active; 'I' for Inactive)
REMARK    1  A    between atoms: N_3  and  C_7 
REMARK    2  A    between atoms: N_4  and  C_10 
REMARK    3  A    between atoms: C_7  and  C_11 
REMARK    4  A    between atoms: C_7  and  C_12 
REMARK    5  A    between atoms: C_10  and  C_13 
REMARK    6  A    between atoms: C_13  and  C_22 
REMARK    7  A    between atoms: C_22  and  C_25 
ROOT
HETATM    1  N   UNK     0     132.748 141.146 168.741  0.00  0.00    -0.345 N 
HETATM    2  N   UNK     0     134.264 140.630 171.372  0.00  0.00    -0.365 N 
HETATM    3  C   UNK     0     133.897 142.080 169.163  0.00  0.00     0.125 A 
HETATM    4  C   UNK     0     132.357 139.954 169.634  0.00  0.00     0.125 A 
HETATM    5  C   UNK     0     134.655 141.822 170.479  0.00  0.00     0.122 A 
HETATM    6  C   UNK     0     133.116 139.696 170.949  0.00  0.00     0.122 A 
ENDROOT
BRANCH   1   7
HETATM    7  C   UNK     0     131.990 141.404 167.426  0.00  0.00     0.040 C 
BRANCH   7   8
HETATM    8  C   UNK     0     130.829 142.415 167.392  0.00  0.00    -0.029 A 
HETATM    9  C   UNK     0     129.904 142.484 166.162  0.00  0.00     0.030 A 
HETATM   10  C   UNK     0     128.743 143.495 166.128  0.00  0.00     0.056 A 
HETATM   11  C   UNK     0     128.506 144.436 167.323  0.00  0.00     0.096 A 
HETATM   12  F   UNK     0     127.345 145.448 167.290  0.00  0.00    -0.213 F 
HETATM   13  C   UNK     0     129.431 144.367 168.553  0.00  0.00     0.056 A 
HETATM   14  C   UNK     0     130.592 143.356 168.587  0.00  0.00     0.030 A 
ENDBRANCH   7   8
BRANCH   7  15
HETATM   15  C   UNK     0     132.393 140.651 166.144  0.00  0.00    -0.029 A 
HETATM   16  C   UNK     0     133.430 141.265 165.185  0.00  0.00     0.030 A 
HETATM   17  C   UNK     0     133.833 140.512 163.903  0.00  0.00     0.056 A 
HETATM   18  C   UNK     0     133.199 139.146 163.581  0.00  0.00     0.096 A 
HETATM   19  F   UNK     0     133.603 138.393 162.299  0.00  0.00    -0.213 F 
HETATM   20  C   UNK     0     132.163 138.532 164.540  0.00  0.00     0.056 A 
HETATM   21  C   UNK     0     131.759 139.285 165.822  0.00  0.00     0.030 A 
ENDBRANCH   7  15
ENDBRANCH   1   7
BRANCH   2  22
HETATM   22  C   UNK     0     135.022 140.372 172.687  0.00  0.00     0.097 C 
BRANCH  22  23
HETATM   23  C   UNK     0     134.242 140.063 173.978  0.00  0.00     0.024 C 
BRANCH  23  24
HETATM   24  C   UNK     0     133.377 141.155 174.635  0.00  0.00     0.002 C 
BRANCH  24  25
HETATM   25  C   UNK     0     132.667 142.205 173.761  0.00  0.00     0.000 A 
HETATM   26  C   UNK     0     133.343 143.561 173.484  0.00  0.00     0.000 A 
HETATM   27  C   UNK     0     132.633 144.611 172.610  0.00  0.00     0.000 A 
HETATM   28  C   UNK     0     131.247 144.306 172.012  0.00  0.00     0.000 A 
HETATM   29  C   UNK     0     130.571 142.950 172.289  0.00  0.00     0.000 A 
HETATM   30  C   UNK     0     131.281 141.900 173.163  0.00  0.00     0.000 A 
ENDBRANCH  24  25
ENDBRANCH  23  24
ENDBRANCH  22  23
ENDBRANCH   2  22
TORSDOF 7
ENDMDL
MODEL 3
REMARK VINA RESULT:      -7.5     64.779     68.922
REMARK  7 active torsions:
REMARK  status: ('A' for Active; 'I' for Inactive)
REMARK    1  A    between atoms: N_3  and  C_7 
REMARK    2  A    between atoms: N_4  and  C_10 
REMARK    3  A    between atoms: C_7  and  C_11 
REMARK    4  A    between atoms: C_7  and  C_12 
REMARK    5  A    between atoms: C_10  and  C_13 
REMARK    6  A    between atoms: C_13  and  C_22 
REMARK    7  A    between atoms: C_22  and  C_25 
ROOT
HETATM    1  N   UNK     0     197.248 177.555 159.207  0.00  0.00    -0.345 N 
HETATM    2  N   UNK     0     197.961 174.728 158.214  0.00  0.00    -0.365 N 
HETATM    3  C   UNK     0     197.665 176.467 160.215  0.00  0.00     0.125 A 
HETATM    4  C   UNK     0     197.188 177.229 157.704  0.00  0.00     0.125 A 
HETATM    5  C   UNK     0     198.022 175.054 159.718  0.00  0.00     0.122 A 
HETATM    6  C   UNK     0     197.544 175.815 157.207  0.00  0.00     0.122 A 
ENDROOT
BRANCH   1   7
HETATM    7  C   UNK     0     196.892 178.968 159.703  0.00  0.00     0.040 C 
BRANCH   7   8
HETATM    8  C   UNK     0     197.878 180.132 159.486  0.00  0.00    -0.029 A 
HETATM    9  C   UNK     0     197.653 181.125 158.331  0.00  0.00     0.030 A 
HETATM   10  C   UNK     0     198.638 182.288 158.114  0.00  0.00     0.056 A 
HETATM   11  C   UNK     0     199.848 182.459 159.052  0.00  0.00     0.096 A 
HETATM   12  F   UNK     0     200.833 183.622 158.835  0.00  0.00    -0.213 F 
HETATM   13  C   UNK     0     200.072 181.465 160.207  0.00  0.00     0.056 A 
HETATM   14  C   UNK     0     199.086 180.302 160.424  0.00  0.00     0.030 A 
ENDBRANCH   7   8
BRANCH   7  15
HETATM   15  C   UNK     0     195.551 179.219 160.417  0.00  0.00    -0.029 A 
HETATM   16  C   UNK     0     194.490 178.104 160.475  0.00  0.00     0.030 A 
HETATM   17  C   UNK     0     193.148 178.353 161.189  0.00  0.00     0.056 A 
HETATM   18  C   UNK     0     192.867 179.719 161.844  0.00  0.00     0.096 A 
HETATM   19  F   UNK     0     191.525 179.969 162.558  0.00  0.00    -0.213 F 
HETATM   20  C   UNK     0     193.928 180.834 161.785  0.00  0.00     0.056 A 
HETATM   21  C   UNK     0     195.270 180.584 161.072  0.00  0.00     0.030 A 
ENDBRANCH   7  15
ENDBRANCH   1   7
BRANCH   2  22
HETATM   22  C   UNK     0     198.317 173.314 157.717  0.00  0.00     0.097 C 
BRANCH  22  23
HETATM   23  C   UNK     0     199.735 172.756 157.937  0.00  0.00     0.024 C 
BRANCH  23  24
HETATM   24  C   UNK     0     200.071 171.997 159.234  0.00  0.00     0.002 C 
BRANCH  24  25
HETATM   25  C   UNK     0     200.646 172.758 160.444  0.00  0.00     0.000 A 
HETATM   26  C   UNK     0     200.275 172.323 161.874  0.00  0.00     0.000 A 
HETATM   27  C   UNK     0     200.849 173.084 163.084  0.00  0.00     0.000 A 
HETATM   28  C   UNK     0     201.795 174.279 162.863  0.00  0.00     0.000 A 
HETATM   29  C   UNK     0     202.167 174.714 161.434  0.00  0.00     0.000 A 
HETATM   30  C   UNK     0     201.592 173.953 160.224  0.00  0.00     0.000 A 
ENDBRANCH  24  25
ENDBRANCH  23  24
ENDBRANCH  22  23
ENDBRANCH   2  22
TORSDOF 7
ENDMDL
MODEL 4
REMARK VINA RESULT:      -7.3     26.367     29.099
REMARK  7 active torsions:
REMARK  status: ('A' for Active; 'I' for Inactive)
REMARK    1  A    between atoms: N_3  and  C_7 
REMARK    2  A    between atoms: N_4  and  C_10 
REMARK    3  A    between atoms: C_7  and  C_11 
REMARK    4  A    between atoms: C_7  and  C_12 
REMARK    5  A    between atoms: C_10  and  C_13 
REMARK    6  A    between atoms: C_13  and  C_22 
REMARK    7  A    between atoms: C_22  and  C_25 
ROOT
HETATM    1  N   UNK     0     156.804 165.721 148.443  0.00  0.00    -0.345 N 
HETATM    2  N   UNK     0     154.111 166.022 146.980  0.00  0.00    -0.365 N 
HETATM    3  C   UNK     0     155.835 164.527 148.362  0.00  0.00     0.125 A 
HETATM    4  C   UNK     0     156.427 167.065 147.794  0.00  0.00     0.125 A 
HETATM    5  C   UNK     0     154.488 164.677 147.630  0.00  0.00     0.122 A 
HETATM    6  C   UNK     0     155.080 167.215 147.062  0.00  0.00     0.122 A 
ENDROOT
BRANCH   1   7
HETATM    7  C   UNK     0     158.151 165.570 149.175  0.00  0.00     0.040 C 
BRANCH   7   8
HETATM    8  C   UNK     0     159.399 165.105 148.402  0.00  0.00    -0.029 A 
HETATM    9  C   UNK     0     160.548 166.094 148.128  0.00  0.00     0.030 A 
HETATM   10  C   UNK     0     161.796 165.629 147.356  0.00  0.00     0.056 A 
HETATM   11  C   UNK     0     161.896 164.175 146.857  0.00  0.00     0.096 A 
HETATM   12  F   UNK     0     163.144 163.710 146.085  0.00  0.00    -0.213 F 
HETATM   13  C   UNK     0     160.747 163.187 147.131  0.00  0.00     0.056 A 
HETATM   14  C   UNK     0     159.499 163.652 147.904  0.00  0.00     0.030 A 
ENDBRANCH   7   8
BRANCH   7  15
HETATM   15  C   UNK     0     158.250 165.885 150.679  0.00  0.00    -0.029 A 
HETATM   16  C   UNK     0     157.676 164.897 151.712  0.00  0.00     0.030 A 
HETATM   17  C   UNK     0     157.774 165.211 153.216  0.00  0.00     0.056 A 
HETATM   18  C   UNK     0     158.447 166.514 153.688  0.00  0.00     0.096 A 
HETATM   19  F   UNK     0     158.545 166.828 155.193  0.00  0.00    -0.213 F 
HETATM   20  C   UNK     0     159.020 167.502 152.655  0.00  0.00     0.056 A 
HETATM   21  C   UNK     0     158.922 167.188 151.151  0.00  0.00     0.030 A 
ENDBRANCH   7  15
ENDBRANCH   1   7
BRANCH   2  22
HETATM   22  C   UNK     0     152.764 166.172 146.248  0.00  0.00     0.097 C 
BRANCH  22  23
HETATM   23  C   UNK     0     151.446 166.098 147.039  0.00  0.00     0.024 C 
BRANCH  23  24
HETATM   24  C   UNK     0     150.836 167.378 147.641  0.00  0.00     0.002 C 
BRANCH  24  25
HETATM   25  C   UNK     0     150.541 168.589 146.737  0.00  0.00     0.000 A 
HETATM   26  C   UNK     0     151.557 169.742 146.638  0.00  0.00     0.000 A 
HETATM   27  C   UNK     0     151.262 170.954 145.734  0.00  0.00     0.000 A 
HETATM   28  C   UNK     0     149.951 171.012 144.928  0.00  0.00     0.000 A 
HETATM   29  C   UNK     0     148.934 169.860 145.027  0.00  0.00     0.000 A 
HETATM   30  C   UNK     0     149.229 168.648 145.931  0.00  0.00     0.000 A 
ENDBRANCH  24  25
ENDBRANCH  23  24
ENDBRANCH  22  23
ENDBRANCH   2  22
TORSDOF 7
ENDMDL
MODEL 5
REMARK VINA RESULT:      -7.2     52.502     55.939
REMARK  7 active torsions:
REMARK  status: ('A' for Active; 'I' for Inactive)
REMARK    1  A    between atoms: N_3  and  C_7 
REMARK    2  A    between atoms: N_4  and  C_10 
REMARK    3  A    between atoms: C_7  and  C_11 
REMARK    4  A    between atoms: C_7  and  C_12 
REMARK    5  A    between atoms: C_10  and  C_13 
REMARK    6  A    between atoms: C_13  and  C_22 
REMARK    7  A    between atoms: C_22  and  C_25 
ROOT
HETATM    1  N   UNK     0     179.262 166.323 188.118  0.00  0.00    -0.345 N 
HETATM    2  N   UNK     0     177.490 168.605 189.184  0.00  0.00    -0.365 N 
HETATM    3  C   UNK     0     178.735 167.403 187.154  0.00  0.00     0.125 A 
HETATM    4  C   UNK     0     178.903 166.384 189.613  0.00  0.00     0.125 A 
HETATM    5  C   UNK     0     177.849 168.544 187.687  0.00  0.00     0.122 A 
HETATM    6  C   UNK     0     178.017 167.526 190.147  0.00  0.00     0.122 A 
ENDROOT
BRANCH   1   7
HETATM    7  C   UNK     0     180.148 165.182 187.584  0.00  0.00     0.040 C 
BRANCH   7   8
HETATM    8  C   UNK     0     181.555 165.490 187.039  0.00  0.00    -0.029 A 
HETATM    9  C   UNK     0     181.771 165.669 185.524  0.00  0.00     0.030 A 
HETATM   10  C   UNK     0     183.177 165.977 184.978  0.00  0.00     0.056 A 
HETATM   11  C   UNK     0     184.368 166.106 185.947  0.00  0.00     0.096 A 
HETATM   12  F   UNK     0     185.775 166.415 185.401  0.00  0.00    -0.213 F 
HETATM   13  C   UNK     0     184.152 165.928 187.461  0.00  0.00     0.056 A 
HETATM   14  C   UNK     0     182.745 165.619 188.007  0.00  0.00     0.030 A 
ENDBRANCH   7   8
BRANCH   7  15
HETATM   15  C   UNK     0     179.628 163.733 187.597  0.00  0.00    -0.029 A 
HETATM   16  C   UNK     0     180.607 162.565 187.816  0.00  0.00     0.030 A 
HETATM   17  C   UNK     0     180.087 161.115 187.829  0.00  0.00     0.056 A 
HETATM   18  C   UNK     0     178.588 160.833 187.622  0.00  0.00     0.096 A 
HETATM   19  F   UNK     0     178.067 159.384 187.634  0.00  0.00    -0.213 F 
HETATM   20  C   UNK     0     177.608 162.001 187.402  0.00  0.00     0.056 A 
HETATM   21  C   UNK     0     178.128 163.451 187.389  0.00  0.00     0.030 A 
ENDBRANCH   7  15
ENDBRANCH   1   7
BRANCH   2  22
HETATM   22  C   UNK     0     176.604 169.746 189.717  0.00  0.00     0.097 C 
BRANCH  22  23
HETATM   23  C   UNK     0     175.889 169.597 191.072  0.00  0.00     0.024 C 
BRANCH  23  24
HETATM   24  C   UNK     0     176.425 170.337 192.312  0.00  0.00     0.002 C 
BRANCH  24  25
HETATM   25  C   UNK     0     177.932 170.316 192.629  0.00  0.00     0.000 A 
HETATM   26  C   UNK     0     178.532 169.152 193.440  0.00  0.00     0.000 A 
HETATM   27  C   UNK     0     180.039 169.130 193.757  0.00  0.00     0.000 A 
HETATM   28  C   UNK     0     180.946 170.273 193.265  0.00  0.00     0.000 A 
HETATM   29  C   UNK     0     180.347 171.437 192.455  0.00  0.00     0.000 A 
HETATM   30  C   UNK     0     178.840 171.459 192.137  0.00  0.00     0.000 A 
ENDBRANCH  24  25
ENDBRANCH  23  24
ENDBRANCH  22  23
ENDBRANCH   2  22
TORSDOF 7
ENDMDL
MODEL 6
REMARK VINA RESULT:      -7.1      5.415      9.714
REMARK  7 active torsions:
REMARK  status: ('A' for Active; 'I' for Inactive)
REMARK    1  A    between atoms: N_3  and  C_7 
REMARK    2  A    between atoms: N_4  and  C_10 
REMARK    3  A    between atoms: C_7  and  C_11 
REMARK    4  A    between atoms: C_7  and  C_12 
REMARK    5  A    between atoms: C_10  and  C_13 
REMARK    6  A    between atoms: C_13  and  C_22 
REMARK    7  A    between atoms: C_22  and  C_25 
ROOT
HETATM    1  N   UNK     0     131.664 148.539 158.460  0.00  0.00    -0.345 N 
HETATM    2  N   UNK     0     131.155 147.245 155.712  0.00  0.00    -0.365 N 
HETATM    3  C   UNK     0     130.833 147.247 158.360  0.00  0.00     0.125 A 
HETATM    4  C   UNK     0     132.241 149.184 157.186  0.00  0.00     0.125 A 
HETATM    5  C   UNK     0     130.579 146.599 156.986  0.00  0.00     0.122 A 
HETATM    6  C   UNK     0     131.986 148.537 155.812  0.00  0.00     0.122 A 
ENDROOT
BRANCH   1   7
HETATM    7  C   UNK     0     131.919 149.186 159.834  0.00  0.00     0.040 C 
BRANCH   7   8
HETATM    8  C   UNK     0     130.732 149.670 160.689  0.00  0.00    -0.029 A 
HETATM    9  C   UNK     0     129.945 148.665 161.551  0.00  0.00     0.030 A 
HETATM   10  C   UNK     0     128.759 149.148 162.405  0.00  0.00     0.056 A 
HETATM   11  C   UNK     0     128.360 150.636 162.399  0.00  0.00     0.096 A 
HETATM   12  F   UNK     0     127.174 151.119 163.254  0.00  0.00    -0.213 F 
HETATM   13  C   UNK     0     129.148 151.640 161.537  0.00  0.00     0.056 A 
HETATM   14  C   UNK     0     130.334 151.157 160.682  0.00  0.00     0.030 A 
ENDBRANCH   7   8
BRANCH   7  15
HETATM   15  C   UNK     0     133.359 149.350 160.353  0.00  0.00    -0.029 A 
HETATM   16  C   UNK     0     133.863 150.735 160.800  0.00  0.00     0.030 A 
HETATM   17  C   UNK     0     135.304 150.900 161.320  0.00  0.00     0.056 A 
HETATM   18  C   UNK     0     136.240 149.679 161.392  0.00  0.00     0.096 A 
HETATM   19  F   UNK     0     137.681 149.844 161.911  0.00  0.00    -0.213 F 
HETATM   20  C   UNK     0     135.736 148.294 160.944  0.00  0.00     0.056 A 
HETATM   21  C   UNK     0     134.295 148.130 160.425  0.00  0.00     0.030 A 
ENDBRANCH   7  15
ENDBRANCH   1   7
BRANCH   2  22
HETATM   22  C   UNK     0     130.901 146.598 154.338  0.00  0.00     0.097 C 
BRANCH  22  23
HETATM   23  C   UNK     0     131.980 146.667 153.242  0.00  0.00     0.024 C 
BRANCH  23  24
HETATM   24  C   UNK     0     133.056 145.569 153.151  0.00  0.00     0.002 C 
BRANCH  24  25
HETATM   25  C   UNK     0     134.544 145.955 153.054  0.00  0.00     0.000 A 
HETATM   26  C   UNK     0     135.628 144.861 153.090  0.00  0.00     0.000 A 
HETATM   27  C   UNK     0     137.115 145.247 152.993  0.00  0.00     0.000 A 
HETATM   28  C   UNK     0     137.520 146.727 152.861  0.00  0.00     0.000 A 
HETATM   29  C   UNK     0     136.437 147.821 152.825  0.00  0.00     0.000 A 
HETATM   30  C   UNK     0     134.949 147.435 152.922  0.00  0.00     0.000 A 
ENDBRANCH  24  25
ENDBRANCH  23  24
ENDBRANCH  22  23
ENDBRANCH   2  22
TORSDOF 7
ENDMDL
MODEL 7
REMARK VINA RESULT:      -7.0     28.018     33.111
REMARK  7 active torsions:
REMARK  status: ('A' for Active; 'I' for Inactive)
REMARK    1  A    between atoms: N_3  and  C_7 
REMARK    2  A    between atoms: N_4  and  C_10 
REMARK    3  A    between atoms: C_7  and  C_11 
REMARK    4  A    between atoms: C_7  and  C_12 
REMARK    5  A    between atoms: C_10  and  C_13 
REMARK    6  A    between atoms: C_13  and  C_22 
REMARK    7  A    between atoms: C_22  and  C_25 
ROOT
HETATM    1  N   UNK     0     159.427 165.744 148.194  0.00  0.00    -0.345 N 
HETATM    2  N   UNK     0     162.029 165.582 146.554  0.00  0.00    -0.365 N 
HETATM    3  C   UNK     0     159.415 166.092 146.693  0.00  0.00     0.125 A 
HETATM    4  C   UNK     0     160.740 165.315 148.873  0.00  0.00     0.125 A 
HETATM    5  C   UNK     0     160.716 166.011 145.873  0.00  0.00     0.122 A 
HETATM    6  C   UNK     0     162.041 165.234 148.053  0.00  0.00     0.122 A 
ENDROOT
BRANCH   1   7
HETATM    7  C   UNK     0     158.126 165.825 149.014  0.00  0.00     0.040 C 
BRANCH   7   8
HETATM    8  C   UNK     0     158.190 165.989 150.544  0.00  0.00    -0.029 A 
HETATM    9  C   UNK     0     157.652 164.875 151.461  0.00  0.00     0.030 A 
HETATM   10  C   UNK     0     157.715 165.038 152.990  0.00  0.00     0.056 A 
HETATM   11  C   UNK     0     158.316 166.317 153.604  0.00  0.00     0.096 A 
HETATM   12  F   UNK     0     158.379 166.481 155.134  0.00  0.00    -0.213 F 
HETATM   13  C   UNK     0     158.854 167.431 152.687  0.00  0.00     0.056 A 
HETATM   14  C   UNK     0     158.791 167.267 151.157  0.00  0.00     0.030 A 
ENDBRANCH   7   8
BRANCH   7  15
HETATM   15  C   UNK     0     156.763 165.742 148.305  0.00  0.00    -0.029 A 
HETATM   16  C   UNK     0     156.078 167.026 147.800  0.00  0.00     0.030 A 
HETATM   17  C   UNK     0     154.713 166.944 147.090  0.00  0.00     0.056 A 
HETATM   18  C   UNK     0     154.034 165.577 146.885  0.00  0.00     0.096 A 
HETATM   19  F   UNK     0     152.669 165.495 146.175  0.00  0.00    -0.213 F 
HETATM   20  C   UNK     0     154.718 164.293 147.390  0.00  0.00     0.056 A 
HETATM   21  C   UNK     0     156.083 164.376 148.100  0.00  0.00     0.030 A 
ENDBRANCH   7  15
ENDBRANCH   1   7
BRANCH   2  22
HETATM   22  C   UNK     0     163.330 165.500 145.734  0.00  0.00     0.097 C 
BRANCH  22  23
HETATM   23  C   UNK     0     164.477 164.584 146.197  0.00  0.00     0.024 C 
BRANCH  23  24
HETATM   24  C   UNK     0     165.901 164.795 145.651  0.00  0.00     0.002 C 
BRANCH  24  25
HETATM   25  C   UNK     0     167.049 165.156 146.613  0.00  0.00     0.000 A 
HETATM   26  C   UNK     0     167.796 166.493 146.453  0.00  0.00     0.000 A 
HETATM   27  C   UNK     0     168.944 166.853 147.415  0.00  0.00     0.000 A 
HETATM   28  C   UNK     0     169.344 165.877 148.537  0.00  0.00     0.000 A 
HETATM   29  C   UNK     0     168.597 164.540 148.697  0.00  0.00     0.000 A 
HETATM   30  C   UNK     0     167.449 164.179 147.735  0.00  0.00     0.000 A 
ENDBRANCH  24  25
ENDBRANCH  23  24
ENDBRANCH  22  23
ENDBRANCH   2  22
TORSDOF 7
ENDMDL
MODEL 8
REMARK VINA RESULT:      -7.0     52.401     56.150
REMARK  7 active torsions:
REMARK  status: ('A' for Active; 'I' for Inactive)
REMARK    1  A    between atoms: N_3  and  C_7 
REMARK    2  A    between atoms: N_4  and  C_10 
REMARK    3  A    between atoms: C_7  and  C_11 
REMARK    4  A    between atoms: C_7  and  C_12 
REMARK    5  A    between atoms: C_10  and  C_13 
REMARK    6  A    between atoms: C_13  and  C_22 
REMARK    7  A    between atoms: C_22  and  C_25 
ROOT
HETATM    1  N   UNK     0     178.974 166.472 188.456  0.00  0.00    -0.345 N 
HETATM    2  N   UNK     0     177.174 168.703 189.582  0.00  0.00    -0.365 N 
HETATM    3  C   UNK     0     178.507 166.418 189.923  0.00  0.00     0.125 A 
HETATM    4  C   UNK     0     178.541 167.641 187.553  0.00  0.00     0.125 A 
HETATM    5  C   UNK     0     177.607 167.534 190.486  0.00  0.00     0.122 A 
HETATM    6  C   UNK     0     177.640 168.756 188.116  0.00  0.00     0.122 A 
ENDROOT
BRANCH   1   7
HETATM    7  C   UNK     0     179.874 165.356 187.893  0.00  0.00     0.040 C 
BRANCH   7   8
HETATM    8  C   UNK     0     179.382 163.897 187.893  0.00  0.00    -0.029 A 
HETATM    9  C   UNK     0     180.261 162.788 188.500  0.00  0.00     0.030 A 
HETATM   10  C   UNK     0     179.770 161.329 188.499  0.00  0.00     0.056 A 
HETATM   11  C   UNK     0     178.399 160.978 187.891  0.00  0.00     0.096 A 
HETATM   12  F   UNK     0     177.907 159.519 187.890  0.00  0.00    -0.213 F 
HETATM   13  C   UNK     0     177.520 162.088 187.284  0.00  0.00     0.056 A 
HETATM   14  C   UNK     0     178.012 163.547 187.285  0.00  0.00     0.030 A 
ENDBRANCH   7   8
BRANCH   7  15
HETATM   15  C   UNK     0     181.266 165.700 187.332  0.00  0.00    -0.029 A 
HETATM   16  C   UNK     0     182.452 165.915 188.291  0.00  0.00     0.030 A 
HETATM   17  C   UNK     0     183.844 166.259 187.729  0.00  0.00     0.056 A 
HETATM   18  C   UNK     0     184.051 166.387 186.208  0.00  0.00     0.096 A 
HETATM   19  F   UNK     0     185.443 166.731 185.646  0.00  0.00    -0.213 F 
HETATM   20  C   UNK     0     182.865 166.172 185.249  0.00  0.00     0.056 A 
HETATM   21  C   UNK     0     181.472 165.828 185.811  0.00  0.00     0.030 A 
ENDBRANCH   7  15
ENDBRANCH   1   7
BRANCH   2  22
HETATM   22  C   UNK     0     176.274 169.819 190.145  0.00  0.00     0.097 C 
BRANCH  22  23
HETATM   23  C   UNK     0     176.598 170.455 191.509  0.00  0.00     0.024 C 
BRANCH  23  24
HETATM   24  C   UNK     0     178.003 171.025 191.779  0.00  0.00     0.002 C 
BRANCH  24  25
HETATM   25  C   UNK     0     178.677 170.796 193.144  0.00  0.00     0.000 A 
HETATM   26  C   UNK     0     180.165 171.147 193.336  0.00  0.00     0.000 A 
HETATM   27  C   UNK     0     180.839 170.919 194.702  0.00  0.00     0.000 A 
HETATM   28  C   UNK     0     180.027 170.339 195.875  0.00  0.00     0.000 A 
HETATM   29  C   UNK     0     178.540 169.988 195.683  0.00  0.00     0.000 A 
HETATM   30  C   UNK     0     177.865 170.217 194.318  0.00  0.00     0.000 A 
ENDBRANCH  24  25
ENDBRANCH  23  24
ENDBRANCH  22  23
ENDBRANCH   2  22
TORSDOF 7
ENDMDL
MODEL 9
REMARK VINA RESULT:      -7.0     59.220     63.449
REMARK  7 active torsions:
REMARK  status: ('A' for Active; 'I' for Inactive)
REMARK    1  A    between atoms: N_3  and  C_7 
REMARK    2  A    between atoms: N_4  and  C_10 
REMARK    3  A    between atoms: C_7  and  C_11 
REMARK    4  A    between atoms: C_7  and  C_12 
REMARK    5  A    between atoms: C_10  and  C_13 
REMARK    6  A    between atoms: C_13  and  C_22 
REMARK    7  A    between atoms: C_22  and  C_25 
ROOT
HETATM    1  N   UNK     0     177.575 191.941 181.524  0.00  0.00    -0.345 N 
HETATM    2  N   UNK     0     178.775 191.456 178.729  0.00  0.00    -0.365 N 
HETATM    3  C   UNK     0     178.015 190.524 181.110  0.00  0.00     0.125 A 
HETATM    4  C   UNK     0     177.735 193.115 180.540  0.00  0.00     0.125 A 
HETATM    5  C   UNK     0     178.615 190.282 179.712  0.00  0.00     0.122 A 
HETATM    6  C   UNK     0     178.335 192.872 179.143  0.00  0.00     0.122 A 
ENDROOT
BRANCH   1   7
HETATM    7  C   UNK     0     176.975 192.184 182.921  0.00  0.00     0.040 C 
BRANCH   7   8
HETATM    8  C   UNK     0     175.488 191.880 183.184  0.00  0.00    -0.029 A 
HETATM    9  C   UNK     0     174.873 190.558 182.687  0.00  0.00     0.030 A 
HETATM   10  C   UNK     0     173.387 190.254 182.950  0.00  0.00     0.056 A 
HETATM   11  C   UNK     0     172.516 191.272 183.710  0.00  0.00     0.096 A 
HETATM   12  F   UNK     0     171.029 190.967 183.973  0.00  0.00    -0.213 F 
HETATM   13  C   UNK     0     173.131 192.593 184.207  0.00  0.00     0.056 A 
HETATM   14  C   UNK     0     174.618 192.897 183.944  0.00  0.00     0.030 A 
ENDBRANCH   7   8
BRANCH   7  15
HETATM   15  C   UNK     0     177.861 192.730 184.055  0.00  0.00    -0.029 A 
HETATM   16  C   UNK     0     178.599 194.071 183.878  0.00  0.00     0.030 A 
HETATM   17  C   UNK     0     179.486 194.618 185.012  0.00  0.00     0.056 A 
HETATM   18  C   UNK     0     179.635 193.825 186.324  0.00  0.00     0.096 A 
HETATM   19  F   UNK     0     180.522 194.372 187.458  0.00  0.00    -0.213 F 
HETATM   20  C   UNK     0     178.897 192.484 186.501  0.00  0.00     0.056 A 
HETATM   21  C   UNK     0     178.010 191.937 185.367  0.00  0.00     0.030 A 
ENDBRANCH   7  15
ENDBRANCH   1   7
BRANCH   2  22
HETATM   22  C   UNK     0     179.375 191.213 177.331  0.00  0.00     0.097 C 
BRANCH  22  23
HETATM   23  C   UNK     0     180.899 191.085 177.159  0.00  0.00     0.024 C 
BRANCH  23  24
HETATM   24  C   UNK     0     181.481 190.002 176.232  0.00  0.00     0.002 C 
BRANCH  24  25
HETATM   25  C   UNK     0     182.891 190.176 175.635  0.00  0.00     0.000 A 
HETATM   26  C   UNK     0     183.065 190.812 174.244  0.00  0.00     0.000 A 
HETATM   27  C   UNK     0     184.475 190.985 173.648  0.00  0.00     0.000 A 
HETATM   28  C   UNK     0     185.710 190.523 174.443  0.00  0.00     0.000 A 
HETATM   29  C   UNK     0     185.536 189.887 175.835  0.00  0.00     0.000 A 
HETATM   30  C   UNK     0     184.126 189.713 176.431  0.00  0.00     0.000 A 
ENDBRANCH  24  25
ENDBRANCH  23  24
ENDBRANCH  22  23
ENDBRANCH   2  22
TORSDOF 7
ENDMDL
MODEL 10
REMARK VINA RESULT:      -6.9     13.404     15.882
REMARK  7 active torsions:
REMARK  status: ('A' for Active; 'I' for Inactive)
REMARK    1  A    between atoms: N_3  and  C_7 
REMARK    2  A    between atoms: N_4  and  C_10 
REMARK    3  A    between atoms: C_7  and  C_11 
REMARK    4  A    between atoms: C_7  and  C_12 
REMARK    5  A    between atoms: C_10  and  C_13 
REMARK    6  A    between atoms: C_13  and  C_22 
REMARK    7  A    between atoms: C_22  and  C_25 
ROOT
HETATM    1  N   UNK     0     134.254 141.400 168.383  0.00  0.00    -0.345 N 
HETATM    2  N   UNK     0     132.136 143.091 169.845  0.00  0.00    -0.365 N 
HETATM    3  C   UNK     0     134.284 142.936 168.272  0.00  0.00     0.125 A 
HETATM    4  C   UNK     0     133.165 140.710 169.225  0.00  0.00     0.125 A 
HETATM    5  C   UNK     0     133.225 143.782 169.003  0.00  0.00     0.122 A 
HETATM    6  C   UNK     0     132.106 141.556 169.956  0.00  0.00     0.122 A 
ENDROOT
BRANCH   1   7
HETATM    7  C   UNK     0     135.313 140.554 167.652  0.00  0.00     0.040 C 
BRANCH   7   8
HETATM    8  C   UNK     0     134.990 139.935 166.279  0.00  0.00    -0.029 A 
HETATM    9  C   UNK     0     134.287 138.567 166.197  0.00  0.00     0.030 A 
HETATM   10  C   UNK     0     133.964 137.947 164.826  0.00  0.00     0.056 A 
HETATM   11  C   UNK     0     134.345 138.696 163.534  0.00  0.00     0.096 A 
HETATM   12  F   UNK     0     134.022 138.076 162.161  0.00  0.00    -0.213 F 
HETATM   13  C   UNK     0     135.048 140.063 163.616  0.00  0.00     0.056 A 
HETATM   14  C   UNK     0     135.371 140.683 164.988  0.00  0.00     0.030 A 
ENDBRANCH   7   8
BRANCH   7  15
HETATM   15  C   UNK     0     136.694 140.328 168.293  0.00  0.00    -0.029 A 
HETATM   16  C   UNK     0     137.113 141.146 169.528  0.00  0.00     0.030 A 
HETATM   17  C   UNK     0     138.495 140.920 170.170  0.00  0.00     0.056 A 
HETATM   18  C   UNK     0     139.458 139.875 169.576  0.00  0.00     0.096 A 
HETATM   19  F   UNK     0     140.840 139.649 170.217  0.00  0.00    -0.213 F 
HETATM   20  C   UNK     0     139.039 139.057 168.340  0.00  0.00     0.056 A 
HETATM   21  C   UNK     0     137.657 139.283 167.698  0.00  0.00     0.030 A 
ENDBRANCH   7  15
ENDBRANCH   1   7
BRANCH   2  22
HETATM   22  C   UNK     0     131.077 143.937 170.576  0.00  0.00     0.097 C 
BRANCH  22  23
HETATM   23  C   UNK     0     131.312 144.375 172.033  0.00  0.00     0.024 C 
BRANCH  23  24
HETATM   24  C   UNK     0     132.733 144.345 172.626  0.00  0.00     0.002 C 
BRANCH  24  25
HETATM   25  C   UNK     0     133.376 143.000 173.016  0.00  0.00     0.000 A 
HETATM   26  C   UNK     0     134.658 142.525 172.308  0.00  0.00     0.000 A 
HETATM   27  C   UNK     0     135.301 141.181 172.699  0.00  0.00     0.000 A 
HETATM   28  C   UNK     0     134.661 140.311 173.797  0.00  0.00     0.000 A 
HETATM   29  C   UNK     0     133.378 140.786 174.505  0.00  0.00     0.000 A 
HETATM   30  C   UNK     0     132.736 142.131 174.115  0.00  0.00     0.000 A 
ENDBRANCH  24  25
ENDBRANCH  23  24
ENDBRANCH  22  23
ENDBRANCH   2  22
TORSDOF 7
ENDMDL
