MODEL 1
REMARK VINA RESULT:      -7.5      0.000      0.000
REMARK  0 active torsions:
REMARK  status: ('A' for Active; 'I' for Inactive)
ROOT
HETATM    1 Cl   UNK     0     128.235 155.534 160.613  0.00  0.00    -0.100 Cl
HETATM    2 Cl   UNK     0     129.181 153.150 160.970  0.00  0.00    -0.158 Cl
HETATM    3  O   UNK     0     135.554 150.092 159.853  0.00  0.00    -0.165 OA
HETATM    4  O   UNK     0     136.394 152.671 158.899  0.00  0.00    -0.165 OA
HETATM    5  N   UNK     0     134.113 153.878 159.269  0.00  0.00    -0.222 NA
HETATM    6  N   UNK     0     133.101 150.774 160.417  0.00  0.00    -0.217 NA
HETATM    7  C   UNK     0     131.624 153.117 160.234  0.00  0.00     0.011 A 
HETATM    8  C   UNK     0     131.829 151.629 160.574  0.00  0.00     0.077 A 
HETATM    9  C   UNK     0     132.640 154.118 159.653  0.00  0.00     0.059 A 
HETATM   10  C   UNK     0     130.600 150.898 161.146  0.00  0.00     0.001 A 
HETATM   11  C   UNK     0     134.482 151.197 159.881  0.00  0.00     0.257 A 
HETATM   12  C   UNK     0     130.123 153.569 160.569  0.00  0.00     0.059 A 
HETATM   13  C   UNK     0     134.932 152.578 159.370  0.00  0.00     0.257 A 
HETATM   14  C   UNK     0     132.225 155.640 159.368  0.00  0.00     0.048 A 
HETATM   15  C   UNK     0     129.673 155.084 160.297  0.00  0.00     0.128 A 
HETATM   16  C   UNK     0     130.731 156.126 159.692  0.00  0.00     0.036 A 
HETATM   17  C   UNK     0     129.276 151.659 161.345  0.00  0.00     0.019 A 
HETATM   18  C   UNK     0     130.696 149.407 161.521  0.00  0.00     0.028 A 
HETATM   19  C   UNK     0     128.047 150.928 161.917  0.00  0.00     0.036 A 
HETATM   20  C   UNK     0     129.467 148.677 162.093  0.00  0.00     0.005 A 
HETATM   21  C   UNK     0     128.142 149.438 162.291  0.00  0.00     0.006 A 
ENDROOT
TORSDOF 0
ENDMDL
MODEL 2
REMARK VINA RESULT:      -6.6     39.687     42.535
REMARK  0 active torsions:
REMARK  status: ('A' for Active; 'I' for Inactive)
ROOT
HETATM    1 Cl   UNK     0     171.334 168.684 145.325  0.00  0.00    -0.100 Cl
HETATM    2 Cl   UNK     0     169.561 167.025 146.227  0.00  0.00    -0.158 Cl
HETATM    3  O   UNK     0     169.380 162.398 151.683  0.00  0.00    -0.165 OA
HETATM    4  O   UNK     0     172.052 163.290 152.260  0.00  0.00    -0.165 OA
HETATM    5  N   UNK     0     172.218 165.003 150.301  0.00  0.00    -0.222 NA
HETATM    6  N   UNK     0     169.002 163.929 149.607  0.00  0.00    -0.217 NA
HETATM    7  C   UNK     0     170.522 165.825 148.264  0.00  0.00     0.011 A 
HETATM    8  C   UNK     0     169.259 164.976 148.506  0.00  0.00     0.077 A 
HETATM    9  C   UNK     0     171.838 165.837 149.063  0.00  0.00     0.059 A 
HETATM   10  C   UNK     0     168.101 165.203 147.517  0.00  0.00     0.001 A 
HETATM   11  C   UNK     0     169.945 163.474 150.737  0.00  0.00     0.257 A 
HETATM   12  C   UNK     0     170.322 166.780 146.992  0.00  0.00     0.059 A 
HETATM   13  C   UNK     0     171.376 163.952 151.046  0.00  0.00     0.257 A 
HETATM   14  C   UNK     0     173.046 166.805 148.644  0.00  0.00     0.048 A 
HETATM   15  C   UNK     0     171.509 167.761 146.544  0.00  0.00     0.128 A 
HETATM   16  C   UNK     0     172.880 167.774 147.376  0.00  0.00     0.036 A 
HETATM   17  C   UNK     0     168.252 166.228 146.377  0.00  0.00     0.019 A 
HETATM   18  C   UNK     0     166.792 164.406 147.668  0.00  0.00     0.028 A 
HETATM   19  C   UNK     0     167.094 166.455 145.388  0.00  0.00     0.036 A 
HETATM   20  C   UNK     0     165.634 164.633 146.679  0.00  0.00     0.005 A 
HETATM   21  C   UNK     0     165.785 165.658 145.539  0.00  0.00     0.006 A 
ENDROOT
TORSDOF 0
ENDMDL
MODEL 3
REMARK VINA RESULT:      -6.4      2.480      5.361
REMARK  0 active torsions:
REMARK  status: ('A' for Active; 'I' for Inactive)
ROOT
HETATM    1 Cl   UNK     0     129.283 157.815 159.131  0.00  0.00    -0.100 Cl
HETATM    2 Cl   UNK     0     131.344 156.246 159.183  0.00  0.00    -0.158 Cl
HETATM    3  O   UNK     0     132.489 149.590 161.550  0.00  0.00    -0.165 OA
HETATM    4  O   UNK     0     129.720 149.609 162.324  0.00  0.00    -0.165 OA
HETATM    5  N   UNK     0     129.200 152.026 161.494  0.00  0.00    -0.222 NA
HETATM    6  N   UNK     0     132.533 152.003 160.562  0.00  0.00    -0.217 NA
HETATM    7  C   UNK     0     130.667 154.037 160.267  0.00  0.00     0.011 A 
HETATM    8  C   UNK     0     132.065 153.405 160.128  0.00  0.00     0.077 A 
HETATM    9  C   UNK     0     129.393 153.424 160.875  0.00  0.00     0.059 A 
HETATM   10  C   UNK     0     133.136 154.292 159.467  0.00  0.00     0.001 A 
HETATM   11  C   UNK     0     131.718 150.887 161.243  0.00  0.00     0.257 A 
HETATM   12  C   UNK     0     130.660 155.524 159.668  0.00  0.00     0.059 A 
HETATM   13  C   UNK     0     130.235 150.898 161.658  0.00  0.00     0.257 A 
HETATM   14  C   UNK     0     128.022 154.255 160.926  0.00  0.00     0.048 A 
HETATM   15  C   UNK     0     129.307 156.385 159.702  0.00  0.00     0.128 A 
HETATM   16  C   UNK     0     127.979 155.746 160.335  0.00  0.00     0.036 A 
HETATM   17  C   UNK     0     132.776 155.713 158.994  0.00  0.00     0.019 A 
HETATM   18  C   UNK     0     134.569 153.758 159.278  0.00  0.00     0.028 A 
HETATM   19  C   UNK     0     133.848 156.600 158.333  0.00  0.00     0.036 A 
HETATM   20  C   UNK     0     135.641 154.644 158.617  0.00  0.00     0.005 A 
HETATM   21  C   UNK     0     135.279 156.065 158.145  0.00  0.00     0.006 A 
ENDROOT
TORSDOF 0
ENDMDL
MODEL 4
REMARK VINA RESULT:      -6.4     15.615     18.141
REMARK  0 active torsions:
REMARK  status: ('A' for Active; 'I' for Inactive)
ROOT
HETATM    1 Cl   UNK     0     131.605 140.114 176.670  0.00  0.00    -0.100 Cl
HETATM    2 Cl   UNK     0     132.467 141.217 174.491  0.00  0.00    -0.158 Cl
HETATM    3  O   UNK     0     138.616 140.914 170.841  0.00  0.00    -0.165 OA
HETATM    4  O   UNK     0     139.504 139.102 172.890  0.00  0.00    -0.165 OA
HETATM    5  N   UNK     0     137.306 139.144 174.292  0.00  0.00    -0.222 NA
HETATM    6  N   UNK     0     136.236 141.325 171.826  0.00  0.00    -0.217 NA
HETATM    7  C   UNK     0     134.854 140.424 174.058  0.00  0.00     0.011 A 
HETATM    8  C   UNK     0     135.016 141.240 172.762  0.00  0.00     0.077 A 
HETATM    9  C   UNK     0     135.873 139.491 174.739  0.00  0.00     0.059 A 
HETATM   10  C   UNK     0     133.796 142.082 172.346  0.00  0.00     0.001 A 
HETATM   11  C   UNK     0     137.597 140.614 171.956  0.00  0.00     0.257 A 
HETATM   12  C   UNK     0     133.399 140.655 174.690  0.00  0.00     0.059 A 
HETATM   13  C   UNK     0     138.073 139.644 173.054  0.00  0.00     0.257 A 
HETATM   14  C   UNK     0     135.506 138.725 176.099  0.00  0.00     0.048 A 
HETATM   15  C   UNK     0     132.998 139.904 176.050  0.00  0.00     0.128 A 
HETATM   16  C   UNK     0     134.059 138.933 176.759  0.00  0.00     0.036 A 
HETATM   17  C   UNK     0     132.521 142.071 173.210  0.00  0.00     0.019 A 
HETATM   18  C   UNK     0     133.850 142.937 171.065  0.00  0.00     0.028 A 
HETATM   19  C   UNK     0     131.301 142.914 172.795  0.00  0.00     0.036 A 
HETATM   20  C   UNK     0     132.630 143.779 170.650  0.00  0.00     0.005 A 
HETATM   21  C   UNK     0     131.356 143.768 171.515  0.00  0.00     0.006 A 
ENDROOT
TORSDOF 0
ENDMDL
MODEL 5
REMARK VINA RESULT:      -6.4     82.966     84.639
REMARK  0 active torsions:
REMARK  status: ('A' for Active; 'I' for Inactive)
ROOT
HETATM    1 Cl   UNK     0     203.410 184.921 191.330  0.00  0.00    -0.100 Cl
HETATM    2 Cl   UNK     0     204.930 184.774 189.237  0.00  0.00    -0.158 Cl
HETATM    3  O   UNK     0     204.385 187.126 182.500  0.00  0.00    -0.165 OA
HETATM    4  O   UNK     0     201.840 188.202 183.299  0.00  0.00    -0.165 OA
HETATM    5  N   UNK     0     201.943 187.389 185.775  0.00  0.00    -0.222 NA
HETATM    6  N   UNK     0     205.005 186.094 184.813  0.00  0.00    -0.217 NA
HETATM    7  C   UNK     0     203.776 185.969 187.299  0.00  0.00     0.011 A 
HETATM    8  C   UNK     0     204.911 185.687 186.296  0.00  0.00     0.077 A 
HETATM    9  C   UNK     0     202.456 186.726 187.067  0.00  0.00     0.059 A 
HETATM   10  C   UNK     0     206.110 184.894 186.848  0.00  0.00     0.001 A 
HETATM   11  C   UNK     0     203.986 186.882 183.967  0.00  0.00     0.257 A 
HETATM   12  C   UNK     0     204.127 185.346 188.734  0.00  0.00     0.059 A 
HETATM   13  C   UNK     0     202.624 187.459 184.396  0.00  0.00     0.257 A 
HETATM   14  C   UNK     0     201.395 186.912 188.255  0.00  0.00     0.048 A 
HETATM   15  C   UNK     0     203.089 185.513 189.945  0.00  0.00     0.128 A 
HETATM   16  C   UNK     0     201.714 186.302 189.703  0.00  0.00     0.036 A 
HETATM   17  C   UNK     0     206.120 184.438 188.319  0.00  0.00     0.019 A 
HETATM   18  C   UNK     0     207.300 184.558 185.929  0.00  0.00     0.028 A 
HETATM   19  C   UNK     0     207.319 183.645 188.871  0.00  0.00     0.036 A 
HETATM   20  C   UNK     0     208.499 183.766 186.482  0.00  0.00     0.005 A 
HETATM   21  C   UNK     0     208.508 183.309 187.953  0.00  0.00     0.006 A 
ENDROOT
TORSDOF 0
ENDMDL
MODEL 6
REMARK VINA RESULT:      -6.3     26.493     28.258
REMARK  0 active torsions:
REMARK  status: ('A' for Active; 'I' for Inactive)
ROOT
HETATM    1 Cl   UNK     0     124.681 143.194 182.287  0.00  0.00    -0.100 Cl
HETATM    2 Cl   UNK     0     126.731 142.890 183.842  0.00  0.00    -0.158 Cl
HETATM    3  O   UNK     0     127.844 143.758 190.857  0.00  0.00    -0.165 OA
HETATM    4  O   UNK     0     125.080 144.543 190.989  0.00  0.00    -0.165 OA
HETATM    5  N   UNK     0     124.572 144.257 188.448  0.00  0.00    -0.222 NA
HETATM    6  N   UNK     0     127.898 143.313 188.289  0.00  0.00    -0.217 NA
HETATM    7  C   UNK     0     126.045 143.479 186.228  0.00  0.00     0.011 A 
HETATM    8  C   UNK     0     127.437 143.194 186.823  0.00  0.00     0.077 A 
HETATM    9  C   UNK     0     124.771 143.951 186.951  0.00  0.00     0.059 A 
HETATM   10  C   UNK     0     128.511 142.730 185.821  0.00  0.00     0.001 A 
HETATM   11  C   UNK     0     127.080 143.745 189.520  0.00  0.00     0.257 A 
HETATM   12  C   UNK     0     126.045 143.214 184.647  0.00  0.00     0.059 A 
HETATM   13  C   UNK     0     125.600 144.165 189.591  0.00  0.00     0.257 A 
HETATM   14  C   UNK     0     123.407 144.192 186.142  0.00  0.00     0.048 A 
HETATM   15  C   UNK     0     124.699 143.444 183.806  0.00  0.00     0.128 A 
HETATM   16  C   UNK     0     123.371 143.937 184.559  0.00  0.00     0.036 A 
HETATM   17  C   UNK     0     128.158 142.578 184.330  0.00  0.00     0.019 A 
HETATM   18  C   UNK     0     129.938 142.418 186.310  0.00  0.00     0.028 A 
HETATM   19  C   UNK     0     129.231 142.114 183.328  0.00  0.00     0.036 A 
HETATM   20  C   UNK     0     131.011 141.954 185.308  0.00  0.00     0.005 A 
HETATM   21  C   UNK     0     130.657 141.802 183.817  0.00  0.00     0.006 A 
ENDROOT
TORSDOF 0
ENDMDL
MODEL 7
REMARK VINA RESULT:      -6.0     33.348     34.894
REMARK  0 active torsions:
REMARK  status: ('A' for Active; 'I' for Inactive)
ROOT
HETATM    1 Cl   UNK     0     150.278 184.138 153.659  0.00  0.00    -0.100 Cl
HETATM    2 Cl   UNK     0     149.945 182.187 151.988  0.00  0.00    -0.158 Cl
HETATM    3  O   UNK     0     152.181 175.393 151.741  0.00  0.00    -0.165 OA
HETATM    4  O   UNK     0     153.503 175.954 154.233  0.00  0.00    -0.165 OA
HETATM    5  N   UNK     0     152.741 178.441 154.416  0.00  0.00    -0.222 NA
HETATM    6  N   UNK     0     151.150 177.766 151.417  0.00  0.00    -0.217 NA
HETATM    7  C   UNK     0     151.195 180.138 152.857  0.00  0.00     0.011 A 
HETATM    8  C   UNK     0     150.788 179.242 151.673  0.00  0.00     0.077 A 
HETATM    9  C   UNK     0     152.063 179.782 154.078  0.00  0.00     0.059 A 
HETATM   10  C   UNK     0     149.902 179.907 150.604  0.00  0.00     0.001 A 
HETATM   11  C   UNK     0     152.009 176.824 152.282  0.00  0.00     0.257 A 
HETATM   12  C   UNK     0     150.575 181.608 152.688  0.00  0.00     0.059 A 
HETATM   13  C   UNK     0     152.716 177.124 153.617  0.00  0.00     0.257 A 
HETATM   14  C   UNK     0     152.373 180.871 155.214  0.00  0.00     0.048 A 
HETATM   15  C   UNK     0     150.865 182.722 153.805  0.00  0.00     0.128 A 
HETATM   16  C   UNK     0     151.770 182.351 155.076  0.00  0.00     0.036 A 
HETATM   17  C   UNK     0     149.480 181.380 150.760  0.00  0.00     0.019 A 
HETATM   18  C   UNK     0     149.438 179.100 149.376  0.00  0.00     0.028 A 
HETATM   19  C   UNK     0     148.595 182.046 149.691  0.00  0.00     0.036 A 
HETATM   20  C   UNK     0     148.552 179.766 148.307  0.00  0.00     0.005 A 
HETATM   21  C   UNK     0     148.131 181.239 148.465  0.00  0.00     0.006 A 
ENDROOT
TORSDOF 0
ENDMDL
MODEL 8
REMARK VINA RESULT:      -6.0     20.000     22.674
REMARK  0 active torsions:
REMARK  status: ('A' for Active; 'I' for Inactive)
ROOT
HETATM    1 Cl   UNK     0     154.483 147.333 148.921  0.00  0.00    -0.100 Cl
HETATM    2 Cl   UNK     0     152.801 148.622 150.410  0.00  0.00    -0.158 Cl
HETATM    3  O   UNK     0     145.711 149.578 150.253  0.00  0.00    -0.165 OA
HETATM    4  O   UNK     0     145.748 147.932 147.894  0.00  0.00    -0.165 OA
HETATM    5  N   UNK     0     148.323 147.524 147.863  0.00  0.00    -0.222 NA
HETATM    6  N   UNK     0     148.278 149.504 150.701  0.00  0.00    -0.217 NA
HETATM    7  C   UNK     0     150.454 148.311 149.457  0.00  0.00     0.011 A 
HETATM    8  C   UNK     0     149.773 149.168 150.541  0.00  0.00     0.077 A 
HETATM    9  C   UNK     0     149.809 147.580 148.265  0.00  0.00     0.059 A 
HETATM   10  C   UNK     0     150.710 149.767 151.606  0.00  0.00     0.001 A 
HETATM   11  C   UNK     0     147.096 149.066 149.816  0.00  0.00     0.257 A 
HETATM   12  C   UNK     0     152.037 148.246 149.705  0.00  0.00     0.059 A 
HETATM   13  C   UNK     0     147.116 148.185 148.553  0.00  0.00     0.257 A 
HETATM   14  C   UNK     0     150.703 146.732 147.239  0.00  0.00     0.048 A 
HETATM   15  C   UNK     0     152.961 147.407 148.697  0.00  0.00     0.128 A 
HETATM   16  C   UNK     0     152.290 146.645 147.456  0.00  0.00     0.036 A 
HETATM   17  C   UNK     0     152.225 149.494 151.541  0.00  0.00     0.019 A 
HETATM   18  C   UNK     0     150.133 150.640 152.736  0.00  0.00     0.028 A 
HETATM   19  C   UNK     0     153.162 150.094 152.606  0.00  0.00     0.036 A 
HETATM   20  C   UNK     0     151.070 151.240 153.801  0.00  0.00     0.005 A 
HETATM   21  C   UNK     0     152.584 150.966 153.736  0.00  0.00     0.006 A 
ENDROOT
TORSDOF 0
ENDMDL
MODEL 9
REMARK VINA RESULT:      -5.8     49.368     50.554
REMARK  0 active torsions:
REMARK  status: ('A' for Active; 'I' for Inactive)
ROOT
HETATM    1 Cl   UNK     0     165.431 157.230 200.061  0.00  0.00    -0.100 Cl
HETATM    2 Cl   UNK     0     164.997 154.731 200.582  0.00  0.00    -0.158 Cl
HETATM    3  O   UNK     0     161.005 149.622 197.552  0.00  0.00    -0.165 OA
HETATM    4  O   UNK     0     160.234 151.639 195.652  0.00  0.00    -0.165 OA
HETATM    5  N   UNK     0     161.655 153.569 196.680  0.00  0.00    -0.222 NA
HETATM    6  N   UNK     0     162.582 151.142 198.968  0.00  0.00    -0.217 NA
HETATM    7  C   UNK     0     163.373 153.800 198.847  0.00  0.00     0.011 A 
HETATM    8  C   UNK     0     163.358 152.382 199.449  0.00  0.00     0.077 A 
HETATM    9  C   UNK     0     162.615 154.328 197.616  0.00  0.00     0.059 A 
HETATM   10  C   UNK     0     164.236 152.177 200.698  0.00  0.00     0.001 A 
HETATM   11  C   UNK     0     161.628 151.014 197.765  0.00  0.00     0.257 A 
HETATM   12  C   UNK     0     164.336 154.761 199.696  0.00  0.00     0.059 A 
HETATM   13  C   UNK     0     161.215 152.094 196.747  0.00  0.00     0.257 A 
HETATM   14  C   UNK     0     162.767 155.854 197.147  0.00  0.00     0.048 A 
HETATM   15  C   UNK     0     164.511 156.294 199.257  0.00  0.00     0.128 A 
HETATM   16  C   UNK     0     163.722 156.843 197.973  0.00  0.00     0.036 A 
HETATM   17  C   UNK     0     165.056 153.351 201.265  0.00  0.00     0.019 A 
HETATM   18  C   UNK     0     164.295 150.797 201.380  0.00  0.00     0.028 A 
HETATM   19  C   UNK     0     165.933 153.146 202.513  0.00  0.00     0.036 A 
HETATM   20  C   UNK     0     165.172 150.592 202.628  0.00  0.00     0.005 A 
HETATM   21  C   UNK     0     165.992 151.767 203.195  0.00  0.00     0.006 A 
ENDROOT
TORSDOF 0
ENDMDL
MODEL 10
REMARK VINA RESULT:      -5.7     40.383     43.434
REMARK  0 active torsions:
REMARK  status: ('A' for Active; 'I' for Inactive)
ROOT
HETATM    1 Cl   UNK     0     171.960 152.512 147.223  0.00  0.00    -0.100 Cl
HETATM    2 Cl   UNK     0     171.891 152.360 149.808  0.00  0.00    -0.158 Cl
HETATM    3  O   UNK     0     176.875 152.402 154.944  0.00  0.00    -0.165 OA
HETATM    4  O   UNK     0     178.782 152.653 152.805  0.00  0.00    -0.165 OA
HETATM    5  N   UNK     0     177.044 152.647 150.861  0.00  0.00    -0.222 NA
HETATM    6  N   UNK     0     174.749 152.346 153.434  0.00  0.00    -0.217 NA
HETATM    7  C   UNK     0     174.279 152.470 150.701  0.00  0.00     0.011 A 
HETATM    8  C   UNK     0     173.857 152.357 152.179  0.00  0.00     0.077 A 
HETATM    9  C   UNK     0     175.697 152.599 150.115  0.00  0.00     0.059 A 
HETATM   10  C   UNK     0     172.343 152.241 152.434  0.00  0.00     0.001 A 
HETATM   11  C   UNK     0     176.284 152.444 153.522  0.00  0.00     0.257 A 
HETATM   12  C   UNK     0     172.992 152.438 149.745  0.00  0.00     0.059 A 
HETATM   13  C   UNK     0     177.305 152.578 152.377  0.00  0.00     0.257 A 
HETATM   14  C   UNK     0     175.926 152.705 148.531  0.00  0.00     0.048 A 
HETATM   15  C   UNK     0     173.185 152.542 148.156  0.00  0.00     0.128 A 
HETATM   16  C   UNK     0     174.662 152.676 147.546  0.00  0.00     0.036 A 
HETATM   17  C   UNK     0     171.359 152.242 151.249  0.00  0.00     0.019 A 
HETATM   18  C   UNK     0     171.812 152.122 153.875  0.00  0.00     0.028 A 
HETATM   19  C   UNK     0     169.845 152.125 151.505  0.00  0.00     0.036 A 
HETATM   20  C   UNK     0     170.298 152.006 154.131  0.00  0.00     0.005 A 
HETATM   21  C   UNK     0     169.315 152.007 152.945  0.00  0.00     0.006 A 
ENDROOT
TORSDOF 0
ENDMDL
