MODEL 1
REMARK VINA RESULT:      -6.3      0.000      0.000
REMARK  1 active torsions:
REMARK  status: ('A' for Active; 'I' for Inactive)
REMARK    1  A    between atoms: C_10  and  C_11 
ROOT
HETATM    1  N   UNK     0     159.579 188.233 190.854  0.00  0.00    -0.348 N 
HETATM    2  C   UNK     0     161.283 186.415 191.067  0.00  0.00     0.021 A 
HETATM    3  C   UNK     0     160.405 187.310 191.054  0.00  0.00     0.083 A 
HETATM    4  C   UNK     0     160.297 186.011 194.312  0.00  0.00     0.004 A 
HETATM    5  C   UNK     0     159.866 186.818 193.455  0.00  0.00     0.019 A 
HETATM    6  C   UNK     0     161.407 184.955 194.151  0.00  0.00     0.002 A 
HETATM    7  C   UNK     0     158.591 187.122 195.739  0.00  0.00     0.000 A 
HETATM    8  C   UNK     0     158.160 187.929 194.882  0.00  0.00     0.002 A 
HETATM    9  C   UNK     0     162.191 185.570 190.893  0.00  0.00     0.004 A 
HETATM   10  C   UNK     0     161.685 186.518 189.885  0.00  0.00     0.024 A 
HETATM   11  C   UNK     0     160.533 187.693 189.868  0.00  0.00     0.100 A 
HETATM   12  C   UNK     0     158.818 188.605 191.777  0.00  0.00     0.090 C 
ENDROOT
TORSDOF 1
ENDMDL
MODEL 2
REMARK VINA RESULT:      -6.3      1.944      3.683
REMARK  1 active torsions:
REMARK  status: ('A' for Active; 'I' for Inactive)
REMARK    1  A    between atoms: C_10  and  C_11 
ROOT
HETATM    1  N   UNK     0     161.040 184.228 191.053  0.00  0.00    -0.348 N 
HETATM    2  C   UNK     0     161.439 183.979 193.509  0.00  0.00     0.021 A 
HETATM    3  C   UNK     0     161.199 184.191 192.297  0.00  0.00     0.083 A 
HETATM    4  C   UNK     0     160.000 187.044 193.950  0.00  0.00     0.004 A 
HETATM    5  C   UNK     0     160.187 186.411 192.885  0.00  0.00     0.019 A 
HETATM    6  C   UNK     0     160.366 186.622 195.385  0.00  0.00     0.002 A 
HETATM    7  C   UNK     0     159.012 188.717 192.398  0.00  0.00     0.000 A 
HETATM    8  C   UNK     0     159.200 188.083 191.333  0.00  0.00     0.002 A 
HETATM    9  C   UNK     0     161.754 183.597 194.659  0.00  0.00     0.004 A 
HETATM   10  C   UNK     0     161.975 182.851 193.407  0.00  0.00     0.024 A 
HETATM   11  C   UNK     0     161.660 183.130 191.816  0.00  0.00     0.100 A 
HETATM   12  C   UNK     0     160.497 185.223 190.519  0.00  0.00     0.090 C 
ENDROOT
TORSDOF 1
ENDMDL
MODEL 3
REMARK VINA RESULT:      -6.2      1.510      3.187
REMARK  1 active torsions:
REMARK  status: ('A' for Active; 'I' for Inactive)
REMARK    1  A    between atoms: C_10  and  C_11 
ROOT
HETATM    1  N   UNK     0     160.750 185.860 193.164  0.00  0.00    -0.348 N 
HETATM    2  C   UNK     0     161.070 186.744 190.846  0.00  0.00     0.021 A 
HETATM    3  C   UNK     0     160.840 186.370 192.021  0.00  0.00     0.083 A 
HETATM    4  C   UNK     0     158.632 189.045 191.495  0.00  0.00     0.004 A 
HETATM    5  C   UNK     0     159.088 188.151 192.246  0.00  0.00     0.019 A 
HETATM    6  C   UNK     0     159.041 189.371 190.046  0.00  0.00     0.002 A 
HETATM    7  C   UNK     0     157.213 189.530 193.478  0.00  0.00     0.000 A 
HETATM    8  C   UNK     0     157.669 188.636 194.229  0.00  0.00     0.002 A 
HETATM    9  C   UNK     0     161.434 186.975 189.670  0.00  0.00     0.004 A 
HETATM   10  C   UNK     0     161.971 185.923 190.552  0.00  0.00     0.024 A 
HETATM   11  C   UNK     0     161.669 185.432 192.094  0.00  0.00     0.100 A 
HETATM   12  C   UNK     0     159.924 186.317 193.989  0.00  0.00     0.090 C 
ENDROOT
TORSDOF 1
ENDMDL
MODEL 4
REMARK VINA RESULT:      -6.1      1.470      3.642
REMARK  1 active torsions:
REMARK  status: ('A' for Active; 'I' for Inactive)
REMARK    1  A    between atoms: C_10  and  C_11 
ROOT
HETATM    1  N   UNK     0     161.621 186.343 190.349  0.00  0.00    -0.348 N 
HETATM    2  C   UNK     0     160.865 185.872 192.686  0.00  0.00     0.021 A 
HETATM    3  C   UNK     0     161.178 186.181 191.511  0.00  0.00     0.083 A 
HETATM    4  C   UNK     0     158.646 188.450 192.380  0.00  0.00     0.004 A 
HETATM    5  C   UNK     0     159.470 188.019 191.540  0.00  0.00     0.019 A 
HETATM    6  C   UNK     0     158.390 187.938 193.810  0.00  0.00     0.002 A 
HETATM    7  C   UNK     0     158.108 190.045 190.550  0.00  0.00     0.000 A 
HETATM    8  C   UNK     0     158.933 189.614 189.709  0.00  0.00     0.002 A 
HETATM    9  C   UNK     0     160.689 185.424 193.842  0.00  0.00     0.004 A 
HETATM   10  C   UNK     0     161.659 184.917 192.854  0.00  0.00     0.024 A 
HETATM   11  C   UNK     0     162.070 185.323 191.313  0.00  0.00     0.100 A 
HETATM   12  C   UNK     0     161.154 187.251 189.621  0.00  0.00     0.090 C 
ENDROOT
TORSDOF 1
ENDMDL
MODEL 5
REMARK VINA RESULT:      -6.0      1.813      3.683
REMARK  1 active torsions:
REMARK  status: ('A' for Active; 'I' for Inactive)
REMARK    1  A    between atoms: C_10  and  C_11 
ROOT
HETATM    1  N   UNK     0     160.425 185.736 194.838  0.00  0.00    -0.348 N 
HETATM    2  C   UNK     0     161.308 184.988 192.622  0.00  0.00     0.021 A 
HETATM    3  C   UNK     0     160.825 185.440 193.687  0.00  0.00     0.083 A 
HETATM    4  C   UNK     0     159.830 187.730 191.221  0.00  0.00     0.004 A 
HETATM    5  C   UNK     0     159.837 187.368 192.422  0.00  0.00     0.019 A 
HETATM    6  C   UNK     0     160.492 187.037 190.015  0.00  0.00     0.002 A 
HETATM    7  C   UNK     0     158.474 189.603 192.134  0.00  0.00     0.000 A 
HETATM    8  C   UNK     0     158.481 189.242 193.334  0.00  0.00     0.002 A 
HETATM    9  C   UNK     0     161.862 184.392 191.669  0.00  0.00     0.004 A 
HETATM   10  C   UNK     0     161.871 183.966 193.081  0.00  0.00     0.024 A 
HETATM   11  C   UNK     0     161.237 184.560 194.478  0.00  0.00     0.100 A 
HETATM   12  C   UNK     0     159.737 186.769 195.017  0.00  0.00     0.090 C 
ENDROOT
TORSDOF 1
ENDMDL
MODEL 6
REMARK VINA RESULT:      -5.9      2.208      3.473
REMARK  1 active torsions:
REMARK  status: ('A' for Active; 'I' for Inactive)
REMARK    1  A    between atoms: C_10  and  C_11 
ROOT
HETATM    1  N   UNK     0     161.637 184.097 193.546  0.00  0.00    -0.348 N 
HETATM    2  C   UNK     0     160.523 185.044 191.517  0.00  0.00     0.021 A 
HETATM    3  C   UNK     0     161.052 184.649 192.583  0.00  0.00     0.083 A 
HETATM    4  C   UNK     0     159.609 187.740 193.403  0.00  0.00     0.004 A 
HETATM    5  C   UNK     0     160.262 186.727 193.746  0.00  0.00     0.019 A 
HETATM    6  C   UNK     0     159.021 188.069 192.018  0.00  0.00     0.002 A 
HETATM    7  C   UNK     0     159.966 188.373 195.781  0.00  0.00     0.000 A 
HETATM    8  C   UNK     0     160.619 187.360 196.124  0.00  0.00     0.002 A 
HETATM    9  C   UNK     0     160.062 185.271 190.375  0.00  0.00     0.004 A 
HETATM   10  C   UNK     0     160.830 184.079 190.778  0.00  0.00     0.024 A 
HETATM   11  C   UNK     0     161.525 183.562 192.177  0.00  0.00     0.100 A 
HETATM   12  C   UNK     0     161.664 184.655 194.668  0.00  0.00     0.090 C 
ENDROOT
TORSDOF 1
ENDMDL
MODEL 7
REMARK VINA RESULT:      -5.4      1.098      3.670
REMARK  1 active torsions:
REMARK  status: ('A' for Active; 'I' for Inactive)
REMARK    1  A    between atoms: C_10  and  C_11 
ROOT
HETATM    1  N   UNK     0     159.893 188.190 190.208  0.00  0.00    -0.348 N 
HETATM    2  C   UNK     0     158.518 188.794 192.208  0.00  0.00     0.021 A 
HETATM    3  C   UNK     0     159.246 188.418 191.258  0.00  0.00     0.083 A 
HETATM    4  C   UNK     0     159.973 186.189 193.868  0.00  0.00     0.004 A 
HETATM    5  C   UNK     0     160.163 186.574 192.691  0.00  0.00     0.019 A 
HETATM    6  C   UNK     0     159.018 186.783 194.921  0.00  0.00     0.002 A 
HETATM    7  C   UNK     0     161.670 184.484 193.239  0.00  0.00     0.000 A 
HETATM    8  C   UNK     0     161.861 184.870 192.061  0.00  0.00     0.002 A 
HETATM    9  C   UNK     0     157.729 189.309 193.033  0.00  0.00     0.004 A 
HETATM   10  C   UNK     0     157.952 189.762 191.648  0.00  0.00     0.024 A 
HETATM   11  C   UNK     0     158.907 189.269 190.402  0.00  0.00     0.100 A 
HETATM   12  C   UNK     0     160.707 187.237 190.167  0.00  0.00     0.090 C 
ENDROOT
TORSDOF 1
ENDMDL
MODEL 8
REMARK VINA RESULT:      -5.1     50.263     52.450
REMARK  1 active torsions:
REMARK  status: ('A' for Active; 'I' for Inactive)
REMARK    1  A    between atoms: C_10  and  C_11 
ROOT
HETATM    1  N   UNK     0     202.100 178.006 159.450  0.00  0.00    -0.348 N 
HETATM    2  C   UNK     0     201.281 178.308 161.794  0.00  0.00     0.021 A 
HETATM    3  C   UNK     0     201.653 178.244 160.598  0.00  0.00     0.083 A 
HETATM    4  C   UNK     0     200.015 181.337 160.853  0.00  0.00     0.004 A 
HETATM    5  C   UNK     0     200.637 180.496 160.161  0.00  0.00     0.019 A 
HETATM    6  C   UNK     0     199.636 181.249 162.343  0.00  0.00     0.002 A 
HETATM    7  C   UNK     0     199.988 182.595 158.708  0.00  0.00     0.000 A 
HETATM    8  C   UNK     0     200.610 181.754 158.017  0.00  0.00     0.002 A 
HETATM    9  C   UNK     0     200.992 178.195 163.008  0.00  0.00     0.004 A 
HETATM   10  C   UNK     0     201.724 177.206 162.195  0.00  0.00     0.024 A 
HETATM   11  C   UNK     0     202.213 177.123 160.626  0.00  0.00     0.100 A 
HETATM   12  C   UNK     0     201.940 178.840 158.529  0.00  0.00     0.090 C 
ENDROOT
TORSDOF 1
ENDMDL
MODEL 9
REMARK VINA RESULT:      -5.1     36.098     38.418
REMARK  1 active torsions:
REMARK  status: ('A' for Active; 'I' for Inactive)
REMARK    1  A    between atoms: C_10  and  C_11 
ROOT
HETATM    1  N   UNK     0     187.526 160.021 183.651  0.00  0.00    -0.348 N 
HETATM    2  C   UNK     0     186.366 158.611 181.942  0.00  0.00     0.021 A 
HETATM    3  C   UNK     0     186.868 159.376 182.799  0.00  0.00     0.083 A 
HETATM    4  C   UNK     0     183.713 160.754 182.122  0.00  0.00     0.004 A 
HETATM    5  C   UNK     0     184.799 160.794 182.747  0.00  0.00     0.019 A 
HETATM    6  C   UNK     0     183.252 159.717 181.081  0.00  0.00     0.002 A 
HETATM    7  C   UNK     0     183.254 162.812 183.440  0.00  0.00     0.000 A 
HETATM    8  C   UNK     0     184.340 162.852 184.065  0.00  0.00     0.002 A 
HETATM    9  C   UNK     0     186.031 157.746 181.100  0.00  0.00     0.004 A 
HETATM   10  C   UNK     0     187.309 157.793 181.834  0.00  0.00     0.024 A 
HETATM   11  C   UNK     0     187.968 158.796 182.959  0.00  0.00     0.100 A 
HETATM   12  C   UNK     0     187.038 161.053 184.170  0.00  0.00     0.090 C 
ENDROOT
TORSDOF 1
ENDMDL
MODEL 10
REMARK VINA RESULT:      -5.1     39.970     40.948
REMARK  1 active torsions:
REMARK  status: ('A' for Active; 'I' for Inactive)
REMARK    1  A    between atoms: C_10  and  C_11 
ROOT
HETATM    1  N   UNK     0     180.274 150.697 190.757  0.00  0.00    -0.348 N 
HETATM    2  C   UNK     0     178.113 149.653 191.461  0.00  0.00     0.021 A 
HETATM    3  C   UNK     0     179.202 150.218 191.197  0.00  0.00     0.083 A 
HETATM    4  C   UNK     0     178.472 151.195 194.487  0.00  0.00     0.004 A 
HETATM    5  C   UNK     0     179.231 151.235 193.490  0.00  0.00     0.019 A 
HETATM    6  C   UNK     0     177.143 150.432 194.641  0.00  0.00     0.002 A 
HETATM    7  C   UNK     0     180.202 152.697 195.454  0.00  0.00     0.000 A 
HETATM    8  C   UNK     0     180.961 152.737 194.457  0.00  0.00     0.002 A 
HETATM    9  C   UNK     0     177.037 149.017 191.544  0.00  0.00     0.004 A 
HETATM   10  C   UNK     0     177.930 149.063 190.371  0.00  0.00     0.024 A 
HETATM   11  C   UNK     0     179.357 149.804 190.024  0.00  0.00     0.100 A 
HETATM   12  C   UNK     0     180.970 151.447 191.481  0.00  0.00     0.090 C 
ENDROOT
TORSDOF 1
ENDMDL
