MODEL 1
REMARK VINA RESULT:      -7.3      0.000      0.000
REMARK  1 active torsions:
REMARK  status: ('A' for Active; 'I' for Inactive)
REMARK    1  A    between atoms: C_10  and  C_15 
ROOT
HETATM    1 Cl   UNK     0     171.626 167.062 146.057  0.00  0.00    -0.091 Cl
HETATM    2  N   UNK     0     171.853 164.020 151.515  0.00  0.00    -0.300 N 
HETATM    3  N   UNK     0     169.816 161.737 149.898  0.00  0.00    -0.243 NA
HETATM    4  N   UNK     0     172.597 163.756 153.865  0.00  0.00    -0.251 NA
HETATM    5  C   UNK     0     171.693 164.637 150.113  0.00  0.00     0.040 A 
HETATM    6  C   UNK     0     171.255 162.711 152.062  0.00  0.00     0.086 A 
HETATM    7  C   UNK     0     170.894 164.097 148.912  0.00  0.00     0.012 A 
HETATM    8  C   UNK     0     170.348 161.695 151.343  0.00  0.00     0.114 A 
HETATM    9  C   UNK     0     170.059 162.806 148.816  0.00  0.00     0.077 A 
HETATM   10  C   UNK     0     172.681 164.661 152.632  0.00  0.00     0.120 A 
HETATM   11  C   UNK     0     171.718 162.554 153.513  0.00  0.00     0.172 A 
HETATM   12  C   UNK     0     172.505 166.016 150.008  0.00  0.00     0.049 A 
HETATM   13  C   UNK     0     170.854 164.898 147.523  0.00  0.00     0.062 A 
HETATM   14  C   UNK     0     173.461 165.984 152.533  0.00  0.00     0.072 C 
HETATM   15  C   UNK     0     172.486 166.843 148.635  0.00  0.00     0.040 A 
HETATM   16  C   UNK     0     171.655 166.281 147.384  0.00  0.00     0.018 A 
ENDROOT
BRANCH   9  17
HETATM   17  C   UNK     0     169.378 162.551 147.459  0.00  0.00     0.018 A 
HETATM   18  C   UNK     0     168.046 163.250 147.124  0.00  0.00     0.115 A 
HETATM   19  F   UNK     0     167.398 164.203 148.146  0.00  0.00    -0.209 F 
HETATM   20  C   UNK     0     167.364 162.996 145.767  0.00  0.00     0.056 A 
HETATM   21  C   UNK     0     168.012 162.043 144.746  0.00  0.00     0.007 A 
HETATM   22  C   UNK     0     169.343 161.345 145.081  0.00  0.00     0.005 A 
HETATM   23  C   UNK     0     170.026 161.599 146.438  0.00  0.00     0.030 A 
ENDBRANCH   9  17
TORSDOF 1
ENDMDL
MODEL 2
REMARK VINA RESULT:      -6.8     29.995     33.593
REMARK  1 active torsions:
REMARK  status: ('A' for Active; 'I' for Inactive)
REMARK    1  A    between atoms: C_10  and  C_15 
ROOT
HETATM    1 Cl   UNK     0     201.260 172.525 161.776  0.00  0.00    -0.091 Cl
HETATM    2  N   UNK     0     200.372 178.690 161.230  0.00  0.00    -0.300 N 
HETATM    3  N   UNK     0     198.014 177.762 158.873  0.00  0.00    -0.243 NA
HETATM    4  N   UNK     0     200.849 181.049 161.822  0.00  0.00    -0.251 NA
HETATM    5  C   UNK     0     200.465 177.153 161.240  0.00  0.00     0.040 A 
HETATM    6  C   UNK     0     199.456 179.591 160.381  0.00  0.00     0.086 A 
HETATM    7  C   UNK     0     199.664 176.137 160.403  0.00  0.00     0.012 A 
HETATM    8  C   UNK     0     198.407 179.178 159.332  0.00  0.00     0.114 A 
HETATM    9  C   UNK     0     198.574 176.408 159.350  0.00  0.00     0.077 A 
HETATM   10  C   UNK     0     201.229 179.596 162.117  0.00  0.00     0.120 A 
HETATM   11  C   UNK     0     199.756 181.046 160.751  0.00  0.00     0.172 A 
HETATM   12  C   UNK     0     201.569 176.662 162.295  0.00  0.00     0.049 A 
HETATM   13  C   UNK     0     199.913 174.561 160.564  0.00  0.00     0.062 A 
HETATM   14  C   UNK     0     202.290 179.126 163.131  0.00  0.00     0.072 C 
HETATM   15  C   UNK     0     201.843 175.093 162.481  0.00  0.00     0.040 A 
HETATM   16  C   UNK     0     201.009 174.035 161.610  0.00  0.00     0.018 A 
ENDROOT
BRANCH   9  17
HETATM   17  C   UNK     0     197.962 175.161 158.686  0.00  0.00     0.018 A 
HETATM   18  C   UNK     0     198.613 174.564 157.423  0.00  0.00     0.115 A 
HETATM   19  F   UNK     0     199.875 175.215 156.826  0.00  0.00    -0.209 F 
HETATM   20  C   UNK     0     198.003 173.316 156.759  0.00  0.00     0.056 A 
HETATM   21  C   UNK     0     196.742 172.665 157.357  0.00  0.00     0.007 A 
HETATM   22  C   UNK     0     196.092 173.261 158.618  0.00  0.00     0.005 A 
HETATM   23  C   UNK     0     196.702 174.509 159.283  0.00  0.00     0.030 A 
ENDBRANCH   9  17
TORSDOF 1
ENDMDL
MODEL 3
REMARK VINA RESULT:      -6.6     47.457     49.467
REMARK  1 active torsions:
REMARK  status: ('A' for Active; 'I' for Inactive)
REMARK    1  A    between atoms: C_10  and  C_15 
ROOT
HETATM    1 Cl   UNK     0     131.288 140.420 176.638  0.00  0.00    -0.091 Cl
HETATM    2  N   UNK     0     136.967 139.332 174.256  0.00  0.00    -0.300 N 
HETATM    3  N   UNK     0     135.966 141.582 171.826  0.00  0.00    -0.243 NA
HETATM    4  N   UNK     0     139.187 138.231 174.260  0.00  0.00    -0.251 NA
HETATM    5  C   UNK     0     135.543 139.711 174.706  0.00  0.00     0.040 A 
HETATM    6  C   UNK     0     137.751 139.831 173.029  0.00  0.00     0.086 A 
HETATM    7  C   UNK     0     134.552 140.683 174.039  0.00  0.00     0.012 A 
HETATM    8  C   UNK     0     137.305 140.833 171.947  0.00  0.00     0.114 A 
HETATM    9  C   UNK     0     134.741 141.516 172.756  0.00  0.00     0.077 A 
HETATM   10  C   UNK     0     137.858 138.344 175.013  0.00  0.00     0.120 A 
HETATM   11  C   UNK     0     139.120 139.147 173.037  0.00  0.00     0.172 A 
HETATM   12  C   UNK     0     135.152 138.932 176.053  0.00  0.00     0.049 A 
HETATM   13  C   UNK     0     133.102 140.943 174.671  0.00  0.00     0.062 A 
HETATM   14  C   UNK     0     137.484 137.596 176.305  0.00  0.00     0.072 C 
HETATM   15  C   UNK     0     133.709 139.168 176.712  0.00  0.00     0.040 A 
HETATM   16  C   UNK     0     132.677 140.181 176.017  0.00  0.00     0.018 A 
ENDROOT
BRANCH   9  17
HETATM   17  C   UNK     0     133.545 142.399 172.353  0.00  0.00     0.018 A 
HETATM   18  C   UNK     0     132.482 141.856 171.379  0.00  0.00     0.115 A 
HETATM   19  F   UNK     0     132.614 140.430 170.810  0.00  0.00    -0.209 F 
HETATM   20  C   UNK     0     131.286 142.737 170.975  0.00  0.00     0.056 A 
HETATM   21  C   UNK     0     131.153 144.162 171.545  0.00  0.00     0.007 A 
HETATM   22  C   UNK     0     132.216 144.705 172.517  0.00  0.00     0.005 A 
HETATM   23  C   UNK     0     133.412 143.823 172.922  0.00  0.00     0.030 A 
ENDBRANCH   9  17
TORSDOF 1
ENDMDL
MODEL 4
REMARK VINA RESULT:      -6.6      2.024      4.719
REMARK  1 active torsions:
REMARK  status: ('A' for Active; 'I' for Inactive)
REMARK    1  A    between atoms: C_10  and  C_15 
ROOT
HETATM    1 Cl   UNK     0     169.535 163.428 145.552  0.00  0.00    -0.091 Cl
HETATM    2  N   UNK     0     171.543 163.589 151.471  0.00  0.00    -0.300 N 
HETATM    3  N   UNK     0     172.741 166.712 150.584  0.00  0.00    -0.243 NA
HETATM    4  N   UNK     0     171.819 162.617 153.735  0.00  0.00    -0.251 NA
HETATM    5  C   UNK     0     171.120 163.711 149.995  0.00  0.00     0.040 A 
HETATM    6  C   UNK     0     172.310 164.604 152.338  0.00  0.00     0.086 A 
HETATM    7  C   UNK     0     171.359 164.881 149.022  0.00  0.00     0.012 A 
HETATM    8  C   UNK     0     172.843 165.995 151.943  0.00  0.00     0.114 A 
HETATM    9  C   UNK     0     172.081 166.216 149.284  0.00  0.00     0.077 A 
HETATM   10  C   UNK     0     171.243 162.364 152.339  0.00  0.00     0.120 A 
HETATM   11  C   UNK     0     172.477 163.999 153.734  0.00  0.00     0.172 A 
HETATM   12  C   UNK     0     170.338 162.393 149.522  0.00  0.00     0.049 A 
HETATM   13  C   UNK     0     170.833 164.813 147.508  0.00  0.00     0.062 A 
HETATM   14  C   UNK     0     170.493 161.098 151.887  0.00  0.00     0.072 C 
HETATM   15  C   UNK     0     169.798 162.291 148.016  0.00  0.00     0.040 A 
HETATM   16  C   UNK     0     170.047 163.509 147.002  0.00  0.00     0.018 A 
ENDROOT
BRANCH   9  17
HETATM   17  C   UNK     0     172.151 167.183 148.087  0.00  0.00     0.018 A 
HETATM   18  C   UNK     0     170.931 168.053 147.729  0.00  0.00     0.115 A 
HETATM   19  F   UNK     0     169.642 167.955 148.567  0.00  0.00    -0.209 F 
HETATM   20  C   UNK     0     170.999 169.019 146.533  0.00  0.00     0.056 A 
HETATM   21  C   UNK     0     172.288 169.117 145.695  0.00  0.00     0.007 A 
HETATM   22  C   UNK     0     173.507 168.248 146.053  0.00  0.00     0.005 A 
HETATM   23  C   UNK     0     173.438 167.280 147.250  0.00  0.00     0.030 A 
ENDBRANCH   9  17
TORSDOF 1
ENDMDL
MODEL 5
REMARK VINA RESULT:      -6.4     50.880     53.733
REMARK  1 active torsions:
REMARK  status: ('A' for Active; 'I' for Inactive)
REMARK    1  A    between atoms: C_10  and  C_15 
ROOT
HETATM    1 Cl   UNK     0     161.595 190.604 196.038  0.00  0.00    -0.091 Cl
HETATM    2  N   UNK     0     156.016 187.974 197.069  0.00  0.00    -0.300 N 
HETATM    3  N   UNK     0     156.754 186.176 194.205  0.00  0.00    -0.243 NA
HETATM    4  N   UNK     0     153.915 187.688 198.352  0.00  0.00    -0.251 NA
HETATM    5  C   UNK     0     157.402 188.516 196.672  0.00  0.00     0.040 A 
HETATM    6  C   UNK     0     155.168 186.898 196.366  0.00  0.00     0.086 A 
HETATM    7  C   UNK     0     158.282 188.116 195.473  0.00  0.00     0.012 A 
HETATM    8  C   UNK     0     155.497 186.098 195.091  0.00  0.00     0.114 A 
HETATM    9  C   UNK     0     157.994 187.074 194.375  0.00  0.00     0.077 A 
HETATM   10  C   UNK     0     155.237 188.458 198.294  0.00  0.00     0.120 A 
HETATM   11  C   UNK     0     153.873 186.726 197.163  0.00  0.00     0.172 A 
HETATM   12  C   UNK     0     157.888 189.636 197.713  0.00  0.00     0.049 A 
HETATM   13  C   UNK     0     159.709 188.807 195.233  0.00  0.00     0.062 A 
HETATM   14  C   UNK     0     155.702 189.532 199.295  0.00  0.00     0.072 C 
HETATM   15  C   UNK     0     159.310 190.347 197.503  0.00  0.00     0.040 A 
HETATM   16  C   UNK     0     160.227 189.930 196.254  0.00  0.00     0.018 A 
ENDROOT
BRANCH   9  17
HETATM   17  C   UNK     0     159.090 186.910 193.307  0.00  0.00     0.018 A 
HETATM   18  C   UNK     0     160.268 185.947 193.554  0.00  0.00     0.115 A 
HETATM   19  F   UNK     0     160.347 185.150 194.870  0.00  0.00    -0.209 F 
HETATM   20  C   UNK     0     161.365 185.782 192.487  0.00  0.00     0.056 A 
HETATM   21  C   UNK     0     161.285 186.580 191.171  0.00  0.00     0.007 A 
HETATM   22  C   UNK     0     160.109 187.542 190.924  0.00  0.00     0.005 A 
HETATM   23  C   UNK     0     159.011 187.707 191.992  0.00  0.00     0.030 A 
ENDBRANCH   9  17
TORSDOF 1
ENDMDL
MODEL 6
REMARK VINA RESULT:      -6.3     54.929     58.715
REMARK  1 active torsions:
REMARK  status: ('A' for Active; 'I' for Inactive)
REMARK    1  A    between atoms: C_10  and  C_15 
ROOT
HETATM    1 Cl   UNK     0     181.932 185.738 203.213  0.00  0.00    -0.091 Cl
HETATM    2  N   UNK     0     184.227 191.267 201.405  0.00  0.00    -0.300 N 
HETATM    3  N   UNK     0     182.480 190.615 198.490  0.00  0.00    -0.243 NA
HETATM    4  N   UNK     0     185.564 193.323 201.760  0.00  0.00    -0.251 NA
HETATM    5  C   UNK     0     183.582 189.898 201.691  0.00  0.00     0.040 A 
HETATM    6  C   UNK     0     184.120 192.132 200.136  0.00  0.00     0.086 A 
HETATM    7  C   UNK     0     182.671 189.055 200.778  0.00  0.00     0.012 A 
HETATM    8  C   UNK     0     183.343 191.842 198.838  0.00  0.00     0.114 A 
HETATM    9  C   UNK     0     182.181 189.375 199.353  0.00  0.00     0.077 A 
HETATM   10  C   UNK     0     185.119 192.007 202.404  0.00  0.00     0.120 A 
HETATM   11  C   UNK     0     184.948 193.400 200.361  0.00  0.00     0.172 A 
HETATM   12  C   UNK     0     183.980 189.383 203.157  0.00  0.00     0.049 A 
HETATM   13  C   UNK     0     182.097 187.641 201.268  0.00  0.00     0.062 A 
HETATM   14  C   UNK     0     185.503 191.515 203.811  0.00  0.00     0.072 C 
HETATM   15  C   UNK     0     183.424 187.973 203.679  0.00  0.00     0.040 A 
HETATM   16  C   UNK     0     182.475 187.095 202.728  0.00  0.00     0.018 A 
ENDROOT
BRANCH   9  17
HETATM   17  C   UNK     0     181.272 188.313 198.707  0.00  0.00     0.018 A 
HETATM   18  C   UNK     0     179.760 188.575 198.570  0.00  0.00     0.115 A 
HETATM   19  F   UNK     0     179.158 189.899 199.080  0.00  0.00    -0.209 F 
HETATM   20  C   UNK     0     178.850 187.515 197.925  0.00  0.00     0.056 A 
HETATM   21  C   UNK     0     179.452 186.191 197.415  0.00  0.00     0.007 A 
HETATM   22  C   UNK     0     180.962 185.930 197.551  0.00  0.00     0.005 A 
HETATM   23  C   UNK     0     181.873 186.991 198.198  0.00  0.00     0.030 A 
ENDBRANCH   9  17
TORSDOF 1
ENDMDL
MODEL 7
REMARK VINA RESULT:      -6.3     29.614     32.077
REMARK  1 active torsions:
REMARK  status: ('A' for Active; 'I' for Inactive)
REMARK    1  A    between atoms: C_10  and  C_15 
ROOT
HETATM    1 Cl   UNK     0     195.841 156.535 168.008  0.00  0.00    -0.091 Cl
HETATM    2  N   UNK     0     190.997 152.615 168.533  0.00  0.00    -0.300 N 
HETATM    3  N   UNK     0     190.896 153.775 171.792  0.00  0.00    -0.243 NA
HETATM    4  N   UNK     0     189.417 150.928 167.638  0.00  0.00    -0.251 NA
HETATM    5  C   UNK     0     192.162 153.621 168.574  0.00  0.00     0.040 A 
HETATM    6  C   UNK     0     190.028 152.221 169.662  0.00  0.00     0.086 A 
HETATM    7  C   UNK     0     192.645 154.484 169.756  0.00  0.00     0.012 A 
HETATM    8  C   UNK     0     189.982 152.738 171.113  0.00  0.00     0.114 A 
HETATM    9  C   UNK     0     192.081 154.552 171.188  0.00  0.00     0.077 A 
HETATM   10  C   UNK     0     190.616 151.813 167.286  0.00  0.00     0.120 A 
HETATM   11  C   UNK     0     189.055 151.180 169.103  0.00  0.00     0.172 A 
HETATM   12  C   UNK     0     192.893 153.697 167.148  0.00  0.00     0.049 A 
HETATM   13  C   UNK     0     193.890 155.481 169.593  0.00  0.00     0.062 A 
HETATM   14  C   UNK     0     191.316 151.884 165.916  0.00  0.00     0.072 C 
HETATM   15  C   UNK     0     194.141 154.684 166.950  0.00  0.00     0.040 A 
HETATM   16  C   UNK     0     194.644 155.582 168.181  0.00  0.00     0.018 A 
ENDROOT
BRANCH   9  17
HETATM   17  C   UNK     0     192.797 155.526 172.141  0.00  0.00     0.018 A 
HETATM   18  C   UNK     0     192.314 156.985 172.256  0.00  0.00     0.115 A 
HETATM   19  F   UNK     0     191.116 157.468 171.418  0.00  0.00    -0.209 F 
HETATM   20  C   UNK     0     193.030 157.959 173.209  0.00  0.00     0.056 A 
HETATM   21  C   UNK     0     194.228 157.476 174.047  0.00  0.00     0.007 A 
HETATM   22  C   UNK     0     194.710 156.019 173.932  0.00  0.00     0.005 A 
HETATM   23  C   UNK     0     193.995 155.043 172.979  0.00  0.00     0.030 A 
ENDBRANCH   9  17
TORSDOF 1
ENDMDL
MODEL 8
REMARK VINA RESULT:      -6.3     46.177     48.233
REMARK  1 active torsions:
REMARK  status: ('A' for Active; 'I' for Inactive)
REMARK    1  A    between atoms: C_10  and  C_15 
ROOT
HETATM    1 Cl   UNK     0     134.289 139.641 176.668  0.00  0.00    -0.091 Cl
HETATM    2  N   UNK     0     138.309 139.609 171.878  0.00  0.00    -0.300 N 
HETATM    3  N   UNK     0     135.895 141.545 170.329  0.00  0.00    -0.243 NA
HETATM    4  N   UNK     0     140.440 138.963 170.791  0.00  0.00    -0.251 NA
HETATM    5  C   UNK     0     137.213 139.717 172.955  0.00  0.00     0.040 A 
HETATM    6  C   UNK     0     138.326 140.213 170.462  0.00  0.00     0.086 A 
HETATM    7  C   UNK     0     135.863 140.456 172.881  0.00  0.00     0.012 A 
HETATM    8  C   UNK     0     137.252 141.075 169.772  0.00  0.00     0.114 A 
HETATM    9  C   UNK     0     135.277 141.270 171.712  0.00  0.00     0.077 A 
HETATM   10  C   UNK     0     139.616 138.838 172.076  0.00  0.00     0.120 A 
HETATM   11  C   UNK     0     139.644 139.811 169.796  0.00  0.00     0.172 A 
HETATM   12  C   UNK     0     137.643 138.918 174.278  0.00  0.00     0.049 A 
HETATM   13  C   UNK     0     134.851 140.447 174.125  0.00  0.00     0.062 A 
HETATM   14  C   UNK     0     140.031 138.071 173.345  0.00  0.00     0.072 C 
HETATM   15  C   UNK     0     136.655 138.889 175.541  0.00  0.00     0.040 A 
HETATM   16  C   UNK     0     135.249 139.659 175.464  0.00  0.00     0.018 A 
ENDROOT
BRANCH   9  17
HETATM   17  C   UNK     0     133.889 141.889 171.960  0.00  0.00     0.018 A 
HETATM   18  C   UNK     0     132.618 141.055 171.712  0.00  0.00     0.115 A 
HETATM   19  F   UNK     0     132.736 139.601 171.215  0.00  0.00    -0.209 F 
HETATM   20  C   UNK     0     131.231 141.673 171.960  0.00  0.00     0.056 A 
HETATM   21  C   UNK     0     131.113 143.127 172.457  0.00  0.00     0.007 A 
HETATM   22  C   UNK     0     132.383 143.960 172.705  0.00  0.00     0.005 A 
HETATM   23  C   UNK     0     133.772 143.341 172.457  0.00  0.00     0.030 A 
ENDBRANCH   9  17
TORSDOF 1
ENDMDL
MODEL 9
REMARK VINA RESULT:      -6.3      3.748      6.753
REMARK  1 active torsions:
REMARK  status: ('A' for Active; 'I' for Inactive)
REMARK    1  A    between atoms: C_10  and  C_15 
ROOT
HETATM    1 Cl   UNK     0     175.678 163.511 147.806  0.00  0.00    -0.091 Cl
HETATM    2  N   UNK     0     170.793 167.130 146.341  0.00  0.00    -0.300 N 
HETATM    3  N   UNK     0     170.106 166.925 149.727  0.00  0.00    -0.243 NA
HETATM    4  N   UNK     0     169.392 168.403 144.742  0.00  0.00    -0.251 NA
HETATM    5  C   UNK     0     171.938 166.245 146.870  0.00  0.00     0.040 A 
HETATM    6  C   UNK     0     169.631 167.766 147.125  0.00  0.00     0.086 A 
HETATM    7  C   UNK     0     172.202 165.778 148.314  0.00  0.00     0.012 A 
HETATM    8  C   UNK     0     169.325 167.675 148.632  0.00  0.00     0.114 A 
HETATM    9  C   UNK     0     171.387 166.081 149.585  0.00  0.00     0.077 A 
HETATM   10  C   UNK     0     170.641 167.527 144.871  0.00  0.00     0.120 A 
HETATM   11  C   UNK     0     168.769 168.551 146.132  0.00  0.00     0.172 A 
HETATM   12  C   UNK     0     172.917 165.816 145.674  0.00  0.00     0.049 A 
HETATM   13  C   UNK     0     173.463 164.850 148.661  0.00  0.00     0.062 A 
HETATM   14  C   UNK     0     171.579 167.116 143.721  0.00  0.00     0.072 C 
HETATM   15  C   UNK     0     174.188 164.889 145.985  0.00  0.00     0.040 A 
HETATM   16  C   UNK     0     174.463 164.402 147.489  0.00  0.00     0.018 A 
ENDROOT
BRANCH   9  17
HETATM   17  C   UNK     0     171.923 165.457 150.886  0.00  0.00     0.018 A 
HETATM   18  C   UNK     0     171.428 164.069 151.335  0.00  0.00     0.115 A 
HETATM   19  F   UNK     0     170.396 163.307 150.483  0.00  0.00    -0.209 F 
HETATM   20  C   UNK     0     171.964 163.444 152.636  0.00  0.00     0.056 A 
HETATM   21  C   UNK     0     172.996 164.206 153.488  0.00  0.00     0.007 A 
HETATM   22  C   UNK     0     173.491 165.593 153.039  0.00  0.00     0.005 A 
HETATM   23  C   UNK     0     172.955 166.218 151.738  0.00  0.00     0.030 A 
ENDBRANCH   9  17
TORSDOF 1
ENDMDL
MODEL 10
REMARK VINA RESULT:      -6.2     14.131     16.441
REMARK  1 active torsions:
REMARK  status: ('A' for Active; 'I' for Inactive)
REMARK    1  A    between atoms: C_10  and  C_15 
ROOT
HETATM    1 Cl   UNK     0     168.477 181.759 155.508  0.00  0.00    -0.091 Cl
HETATM    2  N   UNK     0     171.768 176.532 156.483  0.00  0.00    -0.300 N 
HETATM    3  N   UNK     0     169.011 175.593 158.351  0.00  0.00    -0.243 NA
HETATM    4  N   UNK     0     173.770 175.099 156.195  0.00  0.00    -0.251 NA
HETATM    5  C   UNK     0     170.831 177.746 156.344  0.00  0.00     0.040 A 
HETATM    6  C   UNK     0     171.536 175.224 157.261  0.00  0.00     0.086 A 
HETATM    7  C   UNK     0     169.429 177.952 156.949  0.00  0.00     0.012 A 
HETATM    8  C   UNK     0     170.309 174.806 158.092  0.00  0.00     0.114 A 
HETATM    9  C   UNK     0     168.619 176.993 157.842  0.00  0.00     0.077 A 
HETATM   10  C   UNK     0     173.149 176.450 155.827  0.00  0.00     0.120 A 
HETATM   11  C   UNK     0     172.775 174.344 157.079  0.00  0.00     0.172 A 
HETATM   12  C   UNK     0     171.507 178.879 155.431  0.00  0.00     0.049 A 
HETATM   13  C   UNK     0     168.607 179.303 156.682  0.00  0.00     0.062 A 
HETATM   14  C   UNK     0     173.799 177.535 154.950  0.00  0.00     0.072 C 
HETATM   15  C   UNK     0     170.713 180.242 155.144  0.00  0.00     0.040 A 
HETATM   16  C   UNK     0     169.253 180.456 155.773  0.00  0.00     0.018 A 
ENDROOT
BRANCH   9  17
HETATM   17  C   UNK     0     167.235 177.502 158.284  0.00  0.00     0.018 A 
HETATM   18  C   UNK     0     165.993 177.202 157.422  0.00  0.00     0.115 A 
HETATM   19  F   UNK     0     166.137 176.393 156.120  0.00  0.00    -0.209 F 
HETATM   20  C   UNK     0     164.609 177.712 157.864  0.00  0.00     0.056 A 
HETATM   21  C   UNK     0     164.465 178.520 159.167  0.00  0.00     0.007 A 
HETATM   22  C   UNK     0     165.706 178.820 160.027  0.00  0.00     0.005 A 
HETATM   23  C   UNK     0     167.091 178.311 159.586  0.00  0.00     0.030 A 
ENDBRANCH   9  17
TORSDOF 1
ENDMDL
