MODEL 1
REMARK VINA RESULT:      -8.0      0.000      0.000
REMARK  4 active torsions:
REMARK  status: ('A' for Active; 'I' for Inactive)
REMARK    1  A    between atoms: O_1  and  C_15 
REMARK    2  A    between atoms: O_1  and  C_22 
REMARK    3  A    between atoms: O_2  and  C_19 
REMARK    4  A    between atoms: C_21  and  C_22 
ROOT
HETATM    1  O   UNK     0     199.859 176.594 160.854  0.00  0.00    -0.290 OA
HETATM    2  O   UNK     0     194.939 178.656 160.967  0.00  0.00     0.000 OA
HETATM    3  O   UNK     0     196.005 181.116 162.483  0.00  0.00    -0.223 OA
HETATM    4  O   UNK     0     193.976 179.786 161.374  0.00  0.00     0.000 OA
HETATM    5  N   UNK     0     195.801 173.935 158.636  0.00  0.00    -0.254 NA
HETATM    6  N   UNK     0     195.472 179.886 161.725  0.00  0.00     0.000 N 
HETATM    7  C   UNK     0     196.867 176.395 160.152  0.00  0.00     0.006 A 
HETATM    8  C   UNK     0     197.830 175.264 159.745  0.00  0.00     0.060 A 
HETATM    9  C   UNK     0     195.370 176.295 159.801  0.00  0.00     0.038 A 
HETATM   10  C   UNK     0     197.399 177.625 160.911  0.00  0.00    -0.001 A 
HETATM   11  C   UNK     0     197.298 174.034 158.987  0.00  0.00     0.063 A 
HETATM   12  C   UNK     0     194.837 175.065 159.043  0.00  0.00     0.061 A 
HETATM   13  C   UNK     0     199.326 175.364 160.096  0.00  0.00     0.200 A 
HETATM   14  C   UNK     0     196.436 178.755 161.318  0.00  0.00     0.061 A 
HETATM   15  C   UNK     0     198.896 177.724 161.262  0.00  0.00     0.076 A 
HETATM   16  C   UNK     0     198.260 172.904 158.580  0.00  0.00     0.052 C 
HETATM   17  C   UNK     0     194.406 177.426 160.209  0.00  0.00     0.117 A 
HETATM   18  C   UNK     0     193.341 174.966 158.692  0.00  0.00     0.052 C 
HETATM   19  C   UNK     0     196.968 179.985 162.076  0.00  0.00     0.157 A 
HETATM   20  C   UNK     0     199.428 178.954 162.020  0.00  0.00     0.054 A 
HETATM   21  C   UNK     0     198.465 180.085 162.427  0.00  0.00     0.040 A 
ENDROOT
BRANCH  13  22
HETATM   22  O   UNK     0     200.290 174.234 159.689  0.00  0.00    -0.311 OA
BRANCH  22  23
HETATM   23  C   UNK     0     201.293 173.672 160.712  0.00  0.00     0.151 C 
BRANCH  23  24
HETATM   24  C   UNK     0     200.785 173.040 162.022  0.00  0.00     0.030 C 
HETATM   25  C   UNK     0     199.692 171.955 161.980  0.00  0.00     0.003 C 
HETATM   26  C   UNK     0     201.370 173.492 163.373  0.00  0.00     0.003 C 
ENDBRANCH  23  24
ENDBRANCH  22  23
ENDBRANCH  13  22
BRANCH  17  27
HETATM   27  O   UNK     0     192.911 177.326 159.857  0.00  0.00    -0.326 OA
HETATM   28  C   UNK     0     191.860 177.240 160.981  0.00  0.00     0.181 C 
ENDBRANCH  17  27
TORSDOF 4
ENDMDL
MODEL 2
REMARK VINA RESULT:      -7.4      2.188      7.268
REMARK  4 active torsions:
REMARK  status: ('A' for Active; 'I' for Inactive)
REMARK    1  A    between atoms: O_1  and  C_15 
REMARK    2  A    between atoms: O_1  and  C_22 
REMARK    3  A    between atoms: O_2  and  C_19 
REMARK    4  A    between atoms: C_21  and  C_22 
ROOT
HETATM    1  O   UNK     0     194.715 175.340 159.313  0.00  0.00    -0.290 OA
HETATM    2  O   UNK     0     199.773 176.315 160.702  0.00  0.00     0.000 OA
HETATM    3  O   UNK     0     200.600 173.550 159.628  0.00  0.00    -0.223 OA
HETATM    4  O   UNK     0     201.243 175.867 160.780  0.00  0.00     0.000 OA
HETATM    5  N   UNK     0     196.001 179.976 161.617  0.00  0.00    -0.254 NA
HETATM    6  N   UNK     0     200.186 174.932 160.165  0.00  0.00     0.000 N 
HETATM    7  C   UNK     0     196.829 177.211 160.544  0.00  0.00     0.006 A 
HETATM    8  C   UNK     0     195.358 177.658 160.465  0.00  0.00     0.060 A 
HETATM    9  C   UNK     0     197.887 178.146 161.159  0.00  0.00     0.038 A 
HETATM   10  C   UNK     0     197.243 175.828 160.007  0.00  0.00    -0.001 A 
HETATM   11  C   UNK     0     194.944 179.041 161.001  0.00  0.00     0.063 A 
HETATM   12  C   UNK     0     197.473 179.529 161.696  0.00  0.00     0.061 A 
HETATM   13  C   UNK     0     194.301 176.723 159.849  0.00  0.00     0.200 A 
HETATM   14  C   UNK     0     198.715 175.380 160.086  0.00  0.00     0.061 A 
HETATM   15  C   UNK     0     196.185 174.893 159.391  0.00  0.00     0.076 A 
HETATM   16  C   UNK     0     193.473 179.489 160.923  0.00  0.00     0.052 C 
HETATM   17  C   UNK     0     199.359 177.698 161.238  0.00  0.00     0.117 A 
HETATM   18  C   UNK     0     198.531 180.464 162.311  0.00  0.00     0.052 C 
HETATM   19  C   UNK     0     199.129 173.997 159.549  0.00  0.00     0.157 A 
HETATM   20  C   UNK     0     196.599 173.510 158.855  0.00  0.00     0.054 A 
HETATM   21  C   UNK     0     198.071 173.062 158.934  0.00  0.00     0.040 A 
ENDROOT
BRANCH  13  22
HETATM   22  O   UNK     0     192.829 177.171 159.770  0.00  0.00    -0.311 OA
BRANCH  22  23
HETATM   23  C   UNK     0     191.701 176.162 160.053  0.00  0.00     0.151 C 
BRANCH  23  24
HETATM   24  C   UNK     0     190.727 176.403 161.221  0.00  0.00     0.030 C 
HETATM   25  C   UNK     0     191.185 176.156 162.670  0.00  0.00     0.003 C 
HETATM   26  C   UNK     0     189.294 176.891 160.939  0.00  0.00     0.003 C 
ENDBRANCH  23  24
ENDBRANCH  22  23
ENDBRANCH  13  22
BRANCH  17  27
HETATM   27  O   UNK     0     200.416 178.633 161.853  0.00  0.00    -0.326 OA
HETATM   28  C   UNK     0     201.220 178.180 163.086  0.00  0.00     0.181 C 
ENDBRANCH  17  27
TORSDOF 4
ENDMDL
MODEL 3
REMARK VINA RESULT:      -7.3     16.010     19.596
REMARK  4 active torsions:
REMARK  status: ('A' for Active; 'I' for Inactive)
REMARK    1  A    between atoms: O_1  and  C_15 
REMARK    2  A    between atoms: O_1  and  C_22 
REMARK    3  A    between atoms: O_2  and  C_19 
REMARK    4  A    between atoms: C_21  and  C_22 
ROOT
HETATM    1  O   UNK     0     193.498 188.478 171.648  0.00  0.00    -0.290 OA
HETATM    2  O   UNK     0     190.801 191.425 175.184  0.00  0.00     0.000 OA
HETATM    3  O   UNK     0     188.382 191.498 173.278  0.00  0.00    -0.223 OA
HETATM    4  O   UNK     0     189.522 192.179 175.591  0.00  0.00     0.000 OA
HETATM    5  N   UNK     0     195.778 189.842 176.274  0.00  0.00    -0.254 NA
HETATM    6  N   UNK     0     189.591 191.461 174.231  0.00  0.00     0.000 N 
HETATM    7  C   UNK     0     193.359 189.914 174.368  0.00  0.00     0.006 A 
HETATM    8  C   UNK     0     194.638 189.159 173.960  0.00  0.00     0.060 A 
HETATM    9  C   UNK     0     193.289 190.633 175.729  0.00  0.00     0.038 A 
HETATM   10  C   UNK     0     192.149 189.951 173.415  0.00  0.00    -0.001 A 
HETATM   11  C   UNK     0     195.847 189.123 174.913  0.00  0.00     0.063 A 
HETATM   12  C   UNK     0     194.498 190.597 176.681  0.00  0.00     0.061 A 
HETATM   13  C   UNK     0     194.707 188.441 172.600  0.00  0.00     0.200 A 
HETATM   14  C   UNK     0     190.870 190.706 173.823  0.00  0.00     0.061 A 
HETATM   15  C   UNK     0     192.219 189.232 172.055  0.00  0.00     0.076 A 
HETATM   16  C   UNK     0     197.126 188.368 174.506  0.00  0.00     0.052 C 
HETATM   17  C   UNK     0     192.010 191.388 176.136  0.00  0.00     0.117 A 
HETATM   18  C   UNK     0     194.429 191.315 178.042  0.00  0.00     0.052 C 
HETATM   19  C   UNK     0     189.661 190.742 172.870  0.00  0.00     0.157 A 
HETATM   20  C   UNK     0     191.010 189.269 171.102  0.00  0.00     0.054 A 
HETATM   21  C   UNK     0     189.731 190.024 171.510  0.00  0.00     0.040 A 
ENDROOT
BRANCH  13  22
HETATM   22  O   UNK     0     195.986 187.686 172.193  0.00  0.00    -0.311 OA
BRANCH  22  23
HETATM   23  C   UNK     0     195.919 186.186 171.853  0.00  0.00     0.151 C 
BRANCH  23  24
HETATM   24  C   UNK     0     196.811 185.184 172.610  0.00  0.00     0.030 C 
HETATM   25  C   UNK     0     198.340 185.230 172.436  0.00  0.00     0.003 C 
HETATM   26  C   UNK     0     196.173 184.137 173.543  0.00  0.00     0.003 C 
ENDBRANCH  23  24
ENDBRANCH  22  23
ENDBRANCH  13  22
BRANCH  17  27
HETATM   27  O   UNK     0     191.941 192.107 177.496  0.00  0.00    -0.326 OA
HETATM   28  C   UNK     0     190.913 191.659 178.552  0.00  0.00     0.181 C 
ENDBRANCH  17  27
TORSDOF 4
ENDMDL
MODEL 4
REMARK VINA RESULT:      -6.9     54.964     58.584
REMARK  4 active torsions:
REMARK  status: ('A' for Active; 'I' for Inactive)
REMARK    1  A    between atoms: O_1  and  C_15 
REMARK    2  A    between atoms: O_1  and  C_22 
REMARK    3  A    between atoms: O_2  and  C_19 
REMARK    4  A    between atoms: C_21  and  C_22 
ROOT
HETATM    1  O   UNK     0     142.901 166.144 183.569  0.00  0.00    -0.290 OA
HETATM    2  O   UNK     0     147.620 168.483 184.422  0.00  0.00     0.000 OA
HETATM    3  O   UNK     0     146.955 170.603 182.290  0.00  0.00    -0.223 OA
HETATM    4  O   UNK     0     148.633 169.597 184.103  0.00  0.00     0.000 OA
HETATM    5  N   UNK     0     146.258 164.132 187.194  0.00  0.00    -0.254 NA
HETATM    6  N   UNK     0     147.287 169.543 183.356  0.00  0.00     0.000 N 
HETATM    7  C   UNK     0     145.593 166.253 185.062  0.00  0.00     0.006 A 
HETATM    8  C   UNK     0     144.579 165.138 185.382  0.00  0.00     0.060 A 
HETATM    9  C   UNK     0     146.939 166.307 185.808  0.00  0.00     0.038 A 
HETATM   10  C   UNK     0     145.260 167.313 183.996  0.00  0.00    -0.001 A 
HETATM   11  C   UNK     0     144.912 164.078 186.448  0.00  0.00     0.063 A 
HETATM   12  C   UNK     0     147.272 165.247 186.875  0.00  0.00     0.061 A 
HETATM   13  C   UNK     0     143.234 165.084 184.635  0.00  0.00     0.200 A 
HETATM   14  C   UNK     0     146.274 168.428 183.676  0.00  0.00     0.061 A 
HETATM   15  C   UNK     0     143.914 167.259 183.249  0.00  0.00     0.076 A 
HETATM   16  C   UNK     0     143.899 162.964 186.768  0.00  0.00     0.052 C 
HETATM   17  C   UNK     0     147.953 167.422 185.489  0.00  0.00     0.117 A 
HETATM   18  C   UNK     0     148.618 165.302 187.621  0.00  0.00     0.052 C 
HETATM   19  C   UNK     0     145.941 169.488 182.610  0.00  0.00     0.157 A 
HETATM   20  C   UNK     0     143.581 168.319 182.183  0.00  0.00     0.054 A 
HETATM   21  C   UNK     0     144.595 169.434 181.863  0.00  0.00     0.040 A 
ENDROOT
BRANCH  13  22
HETATM   22  O   UNK     0     142.220 163.969 184.955  0.00  0.00    -0.311 OA
BRANCH  22  23
HETATM   23  C   UNK     0     140.725 164.181 184.658  0.00  0.00     0.151 C 
BRANCH  23  24
HETATM   24  C   UNK     0     139.662 163.639 185.633  0.00  0.00     0.030 C 
HETATM   25  C   UNK     0     139.714 162.169 186.090  0.00  0.00     0.003 C 
HETATM   26  C   UNK     0     138.547 164.566 186.150  0.00  0.00     0.003 C 
ENDBRANCH  23  24
ENDBRANCH  22  23
ENDBRANCH  13  22
BRANCH  17  27
HETATM   27  O   UNK     0     149.298 167.476 186.235  0.00  0.00    -0.326 OA
HETATM   28  C   UNK     0     149.591 168.630 187.212  0.00  0.00     0.181 C 
ENDBRANCH  17  27
TORSDOF 4
ENDMDL
MODEL 5
REMARK VINA RESULT:      -6.7     15.084     18.359
REMARK  4 active torsions:
REMARK  status: ('A' for Active; 'I' for Inactive)
REMARK    1  A    between atoms: O_1  and  C_15 
REMARK    2  A    between atoms: O_1  and  C_22 
REMARK    3  A    between atoms: O_2  and  C_19 
REMARK    4  A    between atoms: C_21  and  C_22 
ROOT
HETATM    1  O   UNK     0     195.366 188.789 173.180  0.00  0.00    -0.290 OA
HETATM    2  O   UNK     0     190.694 191.075 174.363  0.00  0.00     0.000 OA
HETATM    3  O   UNK     0     191.725 191.718 177.193  0.00  0.00    -0.223 OA
HETATM    4  O   UNK     0     189.784 191.807 175.366  0.00  0.00     0.000 OA
HETATM    5  N   UNK     0     191.484 188.967 169.526  0.00  0.00    -0.254 NA
HETATM    6  N   UNK     0     191.209 191.396 175.778  0.00  0.00     0.000 N 
HETATM    7  C   UNK     0     192.515 189.610 172.356  0.00  0.00     0.006 A 
HETATM    8  C   UNK     0     193.426 188.877 171.353  0.00  0.00     0.060 A 
HETATM    9  C   UNK     0     191.089 190.021 171.944  0.00  0.00     0.038 A 
HETATM   10  C   UNK     0     193.030 189.931 173.771  0.00  0.00    -0.001 A 
HETATM   11  C   UNK     0     192.910 188.556 169.937  0.00  0.00     0.063 A 
HETATM   12  C   UNK     0     190.573 189.699 170.529  0.00  0.00     0.061 A 
HETATM   13  C   UNK     0     194.851 188.467 171.764  0.00  0.00     0.200 A 
HETATM   14  C   UNK     0     192.120 190.664 174.774  0.00  0.00     0.061 A 
HETATM   15  C   UNK     0     194.457 189.521 174.183  0.00  0.00     0.076 A 
HETATM   16  C   UNK     0     193.820 187.824 168.934  0.00  0.00     0.052 C 
HETATM   17  C   UNK     0     190.178 190.753 172.947  0.00  0.00     0.117 A 
HETATM   18  C   UNK     0     189.147 190.110 170.117  0.00  0.00     0.052 C 
HETATM   19  C   UNK     0     192.635 190.985 176.189  0.00  0.00     0.157 A 
HETATM   20  C   UNK     0     194.972 189.842 175.598  0.00  0.00     0.054 A 
HETATM   21  C   UNK     0     194.062 190.575 176.601  0.00  0.00     0.040 A 
ENDROOT
BRANCH  13  22
HETATM   22  O   UNK     0     195.762 187.734 170.761  0.00  0.00    -0.311 OA
BRANCH  22  23
HETATM   23  C   UNK     0     196.128 186.257 170.991  0.00  0.00     0.151 C 
BRANCH  23  24
HETATM   24  C   UNK     0     196.882 185.840 172.267  0.00  0.00     0.030 C 
HETATM   25  C   UNK     0     198.169 186.579 172.678  0.00  0.00     0.003 C 
HETATM   26  C   UNK     0     196.348 184.684 173.134  0.00  0.00     0.003 C 
ENDBRANCH  23  24
ENDBRANCH  22  23
ENDBRANCH  13  22
BRANCH  17  27
HETATM   27  O   UNK     0     188.753 191.164 172.536  0.00  0.00    -0.326 OA
HETATM   28  C   UNK     0     187.536 190.510 173.217  0.00  0.00     0.181 C 
ENDBRANCH  17  27
TORSDOF 4
ENDMDL
MODEL 6
REMARK VINA RESULT:      -6.7      2.634      5.972
REMARK  4 active torsions:
REMARK  status: ('A' for Active; 'I' for Inactive)
REMARK    1  A    between atoms: O_1  and  C_15 
REMARK    2  A    between atoms: O_1  and  C_22 
REMARK    3  A    between atoms: O_2  and  C_19 
REMARK    4  A    between atoms: C_21  and  C_22 
ROOT
HETATM    1  O   UNK     0     196.957 173.420 159.183  0.00  0.00    -0.290 OA
HETATM    2  O   UNK     0     199.695 177.641 160.958  0.00  0.00     0.000 OA
HETATM    3  O   UNK     0     202.084 175.813 161.619  0.00  0.00    -0.223 OA
HETATM    4  O   UNK     0     200.977 178.239 161.566  0.00  0.00     0.000 OA
HETATM    5  N   UNK     0     194.742 178.272 159.078  0.00  0.00    -0.254 NA
HETATM    6  N   UNK     0     200.890 176.727 161.288  0.00  0.00     0.000 N 
HETATM    7  C   UNK     0     197.131 176.444 159.740  0.00  0.00     0.006 A 
HETATM    8  C   UNK     0     195.849 175.846 159.131  0.00  0.00     0.060 A 
HETATM    9  C   UNK     0     197.219 177.957 160.018  0.00  0.00     0.038 A 
HETATM   10  C   UNK     0     198.326 175.530 160.070  0.00  0.00    -0.001 A 
HETATM   11  C   UNK     0     194.655 176.760 158.800  0.00  0.00     0.063 A 
HETATM   12  C   UNK     0     196.024 178.871 159.687  0.00  0.00     0.061 A 
HETATM   13  C   UNK     0     195.762 174.334 158.852  0.00  0.00     0.200 A 
HETATM   14  C   UNK     0     199.608 176.129 160.679  0.00  0.00     0.061 A 
HETATM   15  C   UNK     0     198.238 174.018 159.792  0.00  0.00     0.076 A 
HETATM   16  C   UNK     0     193.373 176.162 158.191  0.00  0.00     0.052 C 
HETATM   17  C   UNK     0     198.501 178.555 160.627  0.00  0.00     0.117 A 
HETATM   18  C   UNK     0     196.112 180.383 159.966  0.00  0.00     0.052 C 
HETATM   19  C   UNK     0     200.802 175.215 161.010  0.00  0.00     0.157 A 
HETATM   20  C   UNK     0     199.433 173.104 160.123  0.00  0.00     0.054 A 
HETATM   21  C   UNK     0     200.715 173.702 160.732  0.00  0.00     0.040 A 
ENDROOT
BRANCH  13  22
HETATM   22  O   UNK     0     194.480 173.736 158.243  0.00  0.00    -0.311 OA
BRANCH  22  23
HETATM   23  C   UNK     0     194.501 173.165 156.814  0.00  0.00     0.151 C 
BRANCH  23  24
HETATM   24  C   UNK     0     193.942 171.756 156.539  0.00  0.00     0.030 C 
HETATM   25  C   UNK     0     194.582 170.872 155.452  0.00  0.00     0.003 C 
HETATM   26  C   UNK     0     192.744 171.232 157.351  0.00  0.00     0.003 C 
ENDBRANCH  23  24
ENDBRANCH  22  23
ENDBRANCH  13  22
BRANCH  17  27
HETATM   27  O   UNK     0     198.588 180.067 160.905  0.00  0.00    -0.326 OA
HETATM   28  C   UNK     0     198.761 180.575 162.349  0.00  0.00     0.181 C 
ENDBRANCH  17  27
TORSDOF 4
ENDMDL
MODEL 7
REMARK VINA RESULT:      -6.6     52.949     55.592
REMARK  4 active torsions:
REMARK  status: ('A' for Active; 'I' for Inactive)
REMARK    1  A    between atoms: O_1  and  C_15 
REMARK    2  A    between atoms: O_1  and  C_22 
REMARK    3  A    between atoms: O_2  and  C_19 
REMARK    4  A    between atoms: C_21  and  C_22 
ROOT
HETATM    1  O   UNK     0     148.860 162.790 188.714  0.00  0.00    -0.290 OA
HETATM    2  O   UNK     0     149.289 167.493 186.233  0.00  0.00     0.000 OA
HETATM    3  O   UNK     0     146.673 166.928 184.709  0.00  0.00    -0.223 OA
HETATM    4  O   UNK     0     148.742 168.527 185.232  0.00  0.00     0.000 OA
HETATM    5  N   UNK     0     152.999 165.989 189.760  0.00  0.00    -0.254 NA
HETATM    6  N   UNK     0     147.981 167.210 185.471  0.00  0.00     0.000 N 
HETATM    7  C   UNK     0     150.383 165.424 188.236  0.00  0.00     0.006 A 
HETATM    8  C   UNK     0     150.929 164.389 189.237  0.00  0.00     0.060 A 
HETATM    9  C   UNK     0     151.144 166.741 187.996  0.00  0.00     0.038 A 
HETATM   10  C   UNK     0     149.075 165.141 187.473  0.00  0.00    -0.001 A 
HETATM   11  C   UNK     0     152.237 164.671 189.999  0.00  0.00     0.063 A 
HETATM   12  C   UNK     0     152.452 167.024 188.758  0.00  0.00     0.061 A 
HETATM   13  C   UNK     0     150.168 163.072 189.476  0.00  0.00     0.200 A 
HETATM   14  C   UNK     0     148.528 166.176 186.472  0.00  0.00     0.061 A 
HETATM   15  C   UNK     0     148.313 163.823 187.713  0.00  0.00     0.076 A 
HETATM   16  C   UNK     0     152.784 163.638 191.000  0.00  0.00     0.052 C 
HETATM   17  C   UNK     0     150.597 167.776 186.995  0.00  0.00     0.117 A 
HETATM   18  C   UNK     0     153.213 168.341 188.519  0.00  0.00     0.052 C 
HETATM   19  C   UNK     0     147.220 165.893 185.710  0.00  0.00     0.157 A 
HETATM   20  C   UNK     0     147.005 163.541 186.951  0.00  0.00     0.054 A 
HETATM   21  C   UNK     0     146.459 164.575 185.949  0.00  0.00     0.040 A 
ENDROOT
BRANCH  13  22
HETATM   22  O   UNK     0     150.715 162.038 190.477  0.00  0.00    -0.311 OA
BRANCH  22  23
HETATM   23  C   UNK     0     151.075 160.619 189.999  0.00  0.00     0.151 C 
BRANCH  23  24
HETATM   24  C   UNK     0     152.248 160.411 189.022  0.00  0.00     0.030 C 
HETATM   25  C   UNK     0     153.612 159.926 189.549  0.00  0.00     0.003 C 
HETATM   26  C   UNK     0     152.056 160.687 187.519  0.00  0.00     0.003 C 
ENDBRANCH  23  24
ENDBRANCH  22  23
ENDBRANCH  13  22
BRANCH  17  27
HETATM   27  O   UNK     0     151.358 169.092 186.756  0.00  0.00    -0.326 OA
HETATM   28  C   UNK     0     150.874 170.394 187.422  0.00  0.00     0.181 C 
ENDBRANCH  17  27
TORSDOF 4
ENDMDL
MODEL 8
REMARK VINA RESULT:      -6.5     81.343     84.646
REMARK  4 active torsions:
REMARK  status: ('A' for Active; 'I' for Inactive)
REMARK    1  A    between atoms: O_1  and  C_15 
REMARK    2  A    between atoms: O_1  and  C_22 
REMARK    3  A    between atoms: O_2  and  C_19 
REMARK    4  A    between atoms: C_21  and  C_22 
ROOT
HETATM    1  O   UNK     0     121.497 146.328 188.365  0.00  0.00    -0.290 OA
HETATM    2  O   UNK     0     125.728 143.467 186.822  0.00  0.00     0.000 OA
HETATM    3  O   UNK     0     126.948 143.756 189.635  0.00  0.00    -0.223 OA
HETATM    4  O   UNK     0     127.090 142.824 187.140  0.00  0.00     0.000 OA
HETATM    5  N   UNK     0     121.781 144.464 183.374  0.00  0.00    -0.254 NA
HETATM    6  N   UNK     0     126.338 143.611 188.229  0.00  0.00     0.000 N 
HETATM    7  C   UNK     0     123.002 144.753 186.187  0.00  0.00     0.006 A 
HETATM    8  C   UNK     0     121.639 145.396 185.869  0.00  0.00     0.060 A 
HETATM    9  C   UNK     0     123.754 143.965 185.098  0.00  0.00     0.038 A 
HETATM   10  C   UNK     0     123.612 144.897 187.594  0.00  0.00    -0.001 A 
HETATM   11  C   UNK     0     121.028 145.252 184.463  0.00  0.00     0.063 A 
HETATM   12  C   UNK     0     123.144 143.821 183.692  0.00  0.00     0.061 A 
HETATM   13  C   UNK     0     120.887 146.183 186.958  0.00  0.00     0.200 A 
HETATM   14  C   UNK     0     124.975 144.254 187.911  0.00  0.00     0.061 A 
HETATM   15  C   UNK     0     122.859 145.685 188.682  0.00  0.00     0.076 A 
HETATM   16  C   UNK     0     119.666 145.894 184.145  0.00  0.00     0.052 C 
HETATM   17  C   UNK     0     125.117 143.322 185.416  0.00  0.00     0.117 A 
HETATM   18  C   UNK     0     123.897 143.033 182.603  0.00  0.00     0.052 C 
HETATM   19  C   UNK     0     125.585 144.399 189.318  0.00  0.00     0.157 A 
HETATM   20  C   UNK     0     123.470 145.829 190.089  0.00  0.00     0.054 A 
HETATM   21  C   UNK     0     124.833 145.186 190.407  0.00  0.00     0.040 A 
ENDROOT
BRANCH  13  22
HETATM   22  O   UNK     0     119.524 146.826 186.640  0.00  0.00    -0.311 OA
BRANCH  22  23
HETATM   23  C   UNK     0     119.171 148.208 187.220  0.00  0.00     0.151 C 
BRANCH  23  24
HETATM   24  C   UNK     0     119.325 149.470 186.350  0.00  0.00     0.030 C 
HETATM   25  C   UNK     0     120.290 149.465 185.149  0.00  0.00     0.003 C 
HETATM   26  C   UNK     0     118.514 150.737 186.681  0.00  0.00     0.003 C 
ENDBRANCH  23  24
ENDBRANCH  22  23
ENDBRANCH  13  22
BRANCH  17  27
HETATM   27  O   UNK     0     125.869 142.535 184.327  0.00  0.00    -0.326 OA
HETATM   28  C   UNK     0     127.202 143.071 183.772  0.00  0.00     0.181 C 
ENDBRANCH  17  27
TORSDOF 4
ENDMDL
MODEL 9
REMARK VINA RESULT:      -6.4     67.939     71.274
REMARK  4 active torsions:
REMARK  status: ('A' for Active; 'I' for Inactive)
REMARK    1  A    between atoms: O_1  and  C_15 
REMARK    2  A    between atoms: O_1  and  C_22 
REMARK    3  A    between atoms: O_2  and  C_19 
REMARK    4  A    between atoms: C_21  and  C_22 
ROOT
HETATM    1  O   UNK     0     137.969 139.074 168.239  0.00  0.00    -0.290 OA
HETATM    2  O   UNK     0     133.688 141.901 166.776  0.00  0.00     0.000 OA
HETATM    3  O   UNK     0     134.131 141.055 163.848  0.00  0.00    -0.223 OA
HETATM    4  O   UNK     0     132.729 142.396 165.678  0.00  0.00     0.000 OA
HETATM    5  N   UNK     0     135.166 141.756 171.900  0.00  0.00    -0.254 NA
HETATM    6  N   UNK     0     133.910 141.478 165.312  0.00  0.00     0.000 N 
HETATM    7  C   UNK     0     135.608 140.910 168.972  0.00  0.00     0.006 A 
HETATM    8  C   UNK     0     136.568 140.415 170.070  0.00  0.00     0.060 A 
HETATM    9  C   UNK     0     134.427 141.829 169.338  0.00  0.00     0.038 A 
HETATM   10  C   UNK     0     135.829 140.487 167.508  0.00  0.00    -0.001 A 
HETATM   11  C   UNK     0     136.347 140.838 171.534  0.00  0.00     0.063 A 
HETATM   12  C   UNK     0     134.206 142.252 170.802  0.00  0.00     0.061 A 
HETATM   13  C   UNK     0     137.748 139.497 169.703  0.00  0.00     0.200 A 
HETATM   14  C   UNK     0     134.869 140.983 166.410  0.00  0.00     0.061 A 
HETATM   15  C   UNK     0     137.010 139.569 167.142  0.00  0.00     0.076 A 
HETATM   16  C   UNK     0     137.306 140.343 172.632  0.00  0.00     0.052 C 
HETATM   17  C   UNK     0     133.467 142.324 168.240  0.00  0.00     0.117 A 
HETATM   18  C   UNK     0     133.025 143.170 171.168  0.00  0.00     0.052 C 
HETATM   19  C   UNK     0     135.091 140.560 164.946  0.00  0.00     0.157 A 
HETATM   20  C   UNK     0     137.231 139.146 165.677  0.00  0.00     0.054 A 
HETATM   21  C   UNK     0     136.272 139.641 164.579  0.00  0.00     0.040 A 
ENDROOT
BRANCH  13  22
HETATM   22  O   UNK     0     138.708 139.001 170.801  0.00  0.00    -0.311 OA
BRANCH  22  23
HETATM   23  C   UNK     0     140.229 139.029 170.564  0.00  0.00     0.151 C 
BRANCH  23  24
HETATM   24  C   UNK     0     140.992 140.365 170.619  0.00  0.00     0.030 C 
HETATM   25  C   UNK     0     140.800 141.409 169.503  0.00  0.00     0.003 C 
HETATM   26  C   UNK     0     141.949 140.658 171.790  0.00  0.00     0.003 C 
ENDBRANCH  23  24
ENDBRANCH  22  23
ENDBRANCH  13  22
BRANCH  17  27
HETATM   27  O   UNK     0     132.287 143.242 168.607  0.00  0.00    -0.326 OA
HETATM   28  C   UNK     0     130.840 142.750 168.413  0.00  0.00     0.181 C 
ENDBRANCH  17  27
TORSDOF 4
ENDMDL
MODEL 10
REMARK VINA RESULT:      -6.4     15.389     19.493
REMARK  4 active torsions:
REMARK  status: ('A' for Active; 'I' for Inactive)
REMARK    1  A    between atoms: O_1  and  C_15 
REMARK    2  A    between atoms: O_1  and  C_22 
REMARK    3  A    between atoms: O_2  and  C_19 
REMARK    4  A    between atoms: C_21  and  C_22 
ROOT
HETATM    1  O   UNK     0     191.520 190.923 174.842  0.00  0.00    -0.290 OA
HETATM    2  O   UNK     0     196.025 188.549 173.250  0.00  0.00     0.000 OA
HETATM    3  O   UNK     0     197.280 189.079 176.012  0.00  0.00    -0.223 OA
HETATM    4  O   UNK     0     197.464 188.088 173.542  0.00  0.00     0.000 OA
HETATM    5  N   UNK     0     191.889 188.942 169.902  0.00  0.00    -0.254 NA
HETATM    6  N   UNK     0     196.652 188.814 174.631  0.00  0.00     0.000 N 
HETATM    7  C   UNK     0     193.144 189.472 172.665  0.00  0.00     0.006 A 
HETATM    8  C   UNK     0     191.704 189.933 172.372  0.00  0.00     0.060 A 
HETATM    9  C   UNK     0     193.957 188.746 171.576  0.00  0.00     0.038 A 
HETATM   10  C   UNK     0     193.772 189.736 174.046  0.00  0.00    -0.001 A 
HETATM   11  C   UNK     0     191.076 189.668 170.991  0.00  0.00     0.063 A 
HETATM   12  C   UNK     0     193.329 188.481 170.195  0.00  0.00     0.061 A 
HETATM   13  C   UNK     0     190.892 190.658 173.461  0.00  0.00     0.200 A 
HETATM   14  C   UNK     0     195.212 189.275 174.338  0.00  0.00     0.061 A 
HETATM   15  C   UNK     0     192.959 190.462 175.135  0.00  0.00     0.076 A 
HETATM   16  C   UNK     0     189.637 190.129 170.698  0.00  0.00     0.052 C 
HETATM   17  C   UNK     0     195.397 188.285 171.869  0.00  0.00     0.117 A 
HETATM   18  C   UNK     0     194.142 187.755 169.106  0.00  0.00     0.052 C 
HETATM   19  C   UNK     0     195.840 189.540 175.720  0.00  0.00     0.157 A 
HETATM   20  C   UNK     0     193.587 190.727 176.516  0.00  0.00     0.054 A 
HETATM   21  C   UNK     0     195.027 190.266 176.808  0.00  0.00     0.040 A 
ENDROOT
BRANCH  13  22
HETATM   22  O   UNK     0     189.452 191.119 173.168  0.00  0.00    -0.311 OA
BRANCH  22  23
HETATM   23  C   UNK     0     188.394 191.095 174.286  0.00  0.00     0.151 C 
BRANCH  23  24
HETATM   24  C   UNK     0     187.194 190.134 174.191  0.00  0.00     0.030 C 
HETATM   25  C   UNK     0     186.793 189.537 172.829  0.00  0.00     0.003 C 
HETATM   26  C   UNK     0     186.396 189.771 175.456  0.00  0.00     0.003 C 
ENDBRANCH  23  24
ENDBRANCH  22  23
ENDBRANCH  13  22
BRANCH  17  27
HETATM   27  O   UNK     0     196.209 187.559 170.780  0.00  0.00    -0.326 OA
HETATM   28  C   UNK     0     196.588 186.077 170.962  0.00  0.00     0.181 C 
ENDBRANCH  17  27
TORSDOF 4
ENDMDL
