MODEL 1
REMARK VINA RESULT:      -7.7      0.000      0.000
REMARK  1 active torsions:
REMARK  status: ('A' for Active; 'I' for Inactive)
REMARK    1  A    between atoms: C_3  and  C_9 
ROOT
HETATM    1  C   UNK     0     186.125 159.433 182.296  0.00  0.00     0.013 A 
HETATM    2  N   UNK     0     184.237 160.931 181.552  0.00  0.00    -0.241 NA
HETATM    3  C   UNK     0     185.601 160.615 182.167  0.00  0.00     0.071 A 
HETATM    4  N   UNK     0     184.561 157.471 181.357  0.00  0.00    -0.223 NA
HETATM    5  C   UNK     0     185.671 157.985 181.935  0.00  0.00     0.059 A 
HETATM    6  C   UNK     0     183.354 158.272 180.864  0.00  0.00     0.232 A 
HETATM    7  C   UNK     0     187.496 159.632 182.967  0.00  0.00     0.062 A 
HETATM    8  C   UNK     0     183.216 159.884 180.962  0.00  0.00     0.146 A 
HETATM    9  C   UNK     0     186.583 156.783 182.247  0.00  0.00     0.051 A 
HETATM   10  O   UNK     0     182.198 157.486 180.237  0.00  0.00    -0.168 OA
HETATM   11  C   UNK     0     188.399 158.433 183.275  0.00  0.00     0.018 A 
HETATM   12  C   UNK     0     187.943 157.009 182.915  0.00  0.00     0.040 A 
HETATM   13 Cl   UNK     0     189.779 158.651 183.952  0.00  0.00    -0.091 Cl
ENDROOT
BRANCH   3  14
HETATM   14  C   UNK     0     186.427 161.802 182.679  0.00  0.00    -0.027 A 
HETATM   15  C   UNK     0     187.275 162.628 181.702  0.00  0.00     0.024 A 
HETATM   16  C   UNK     0     188.104 163.814 182.203  0.00  0.00     0.004 A 
HETATM   17  C   UNK     0     188.080 164.175 183.703  0.00  0.00     0.001 A 
HETATM   18  C   UNK     0     187.235 163.359 184.702  0.00  0.00     0.004 A 
HETATM   19  C   UNK     0     186.403 162.163 184.178  0.00  0.00     0.024 A 
ENDBRANCH   3  14
TORSDOF 1
ENDMDL
MODEL 2
REMARK VINA RESULT:      -6.7     35.379     37.660
REMARK  1 active torsions:
REMARK  status: ('A' for Active; 'I' for Inactive)
REMARK    1  A    between atoms: C_3  and  C_9 
ROOT
HETATM    1  C   UNK     0     162.307 180.361 161.085  0.00  0.00     0.013 A 
HETATM    2  N   UNK     0     163.982 178.653 160.289  0.00  0.00    -0.241 NA
HETATM    3  C   UNK     0     163.244 179.495 161.329  0.00  0.00     0.071 A 
HETATM    4  N   UNK     0     161.724 180.587 158.480  0.00  0.00    -0.223 NA
HETATM    5  C   UNK     0     161.597 180.877 159.795  0.00  0.00     0.059 A 
HETATM    6  C   UNK     0     162.699 179.574 157.875  0.00  0.00     0.232 A 
HETATM    7  C   UNK     0     161.882 180.944 162.445  0.00  0.00     0.062 A 
HETATM    8  C   UNK     0     163.745 178.680 158.730  0.00  0.00     0.146 A 
HETATM    9  C   UNK     0     160.494 181.948 159.889  0.00  0.00     0.051 A 
HETATM   10  O   UNK     0     162.676 179.400 156.353  0.00  0.00    -0.168 OA
HETATM   11  C   UNK     0     160.784 182.009 162.533  0.00  0.00     0.018 A 
HETATM   12  C   UNK     0     160.090 182.511 161.256  0.00  0.00     0.040 A 
HETATM   13 Cl   UNK     0     160.367 182.585 163.912  0.00  0.00    -0.091 Cl
ENDROOT
BRANCH   3  14
HETATM   14  C   UNK     0     163.644 179.299 162.797  0.00  0.00    -0.027 A 
HETATM   15  C   UNK     0     164.803 180.108 163.394  0.00  0.00     0.024 A 
HETATM   16  C   UNK     0     165.210 179.920 164.858  0.00  0.00     0.004 A 
HETATM   17  C   UNK     0     164.444 178.907 165.733  0.00  0.00     0.001 A 
HETATM   18  C   UNK     0     163.276 178.083 165.155  0.00  0.00     0.004 A 
HETATM   19  C   UNK     0     162.878 178.287 163.672  0.00  0.00     0.024 A 
ENDBRANCH   3  14
TORSDOF 1
ENDMDL
MODEL 3
REMARK VINA RESULT:      -6.7     56.968     59.924
REMARK  1 active torsions:
REMARK  status: ('A' for Active; 'I' for Inactive)
REMARK    1  A    between atoms: C_3  and  C_9 
ROOT
HETATM    1  C   UNK     0     131.866 149.915 160.394  0.00  0.00     0.013 A 
HETATM    2  N   UNK     0     133.084 151.635 161.777  0.00  0.00    -0.241 NA
HETATM    3  C   UNK     0     131.855 150.930 161.204  0.00  0.00     0.071 A 
HETATM    4  N   UNK     0     134.334 149.090 159.759  0.00  0.00    -0.223 NA
HETATM    5  C   UNK     0     132.982 149.058 159.721  0.00  0.00     0.059 A 
HETATM    6  C   UNK     0     135.186 150.080 160.557  0.00  0.00     0.232 A 
HETATM    7  C   UNK     0     130.393 149.568 160.104  0.00  0.00     0.062 A 
HETATM    8  C   UNK     0     134.590 151.261 161.493  0.00  0.00     0.146 A 
HETATM    9  C   UNK     0     132.611 147.891 158.787  0.00  0.00     0.051 A 
HETATM   10  O   UNK     0     136.708 149.937 160.457  0.00  0.00    -0.168 OA
HETATM   11  C   UNK     0     130.030 148.406 159.174  0.00  0.00     0.018 A 
HETATM   12  C   UNK     0     131.138 147.568 158.515  0.00  0.00     0.040 A 
HETATM   13 Cl   UNK     0     128.541 148.071 158.893  0.00  0.00    -0.091 Cl
ENDROOT
BRANCH   3  14
HETATM   14  C   UNK     0     130.482 151.471 161.623  0.00  0.00    -0.027 A 
HETATM   15  C   UNK     0     129.691 150.781 162.742  0.00  0.00     0.024 A 
HETATM   16  C   UNK     0     128.319 151.313 163.167  0.00  0.00     0.004 A 
HETATM   17  C   UNK     0     127.736 152.554 162.460  0.00  0.00     0.001 A 
HETATM   18  C   UNK     0     128.514 153.264 161.334  0.00  0.00     0.004 A 
HETATM   19  C   UNK     0     129.899 152.712 160.916  0.00  0.00     0.024 A 
ENDBRANCH   3  14
TORSDOF 1
ENDMDL
MODEL 4
REMARK VINA RESULT:      -6.7     30.804     32.250
REMARK  1 active torsions:
REMARK  status: ('A' for Active; 'I' for Inactive)
REMARK    1  A    between atoms: C_3  and  C_9 
ROOT
HETATM    1  C   UNK     0     198.080 179.977 160.041  0.00  0.00     0.013 A 
HETATM    2  N   UNK     0     197.076 180.362 162.322  0.00  0.00    -0.241 NA
HETATM    3  C   UNK     0     198.190 180.014 161.335  0.00  0.00     0.071 A 
HETATM    4  N   UNK     0     195.622 180.588 159.168  0.00  0.00    -0.223 NA
HETATM    5  C   UNK     0     196.921 180.235 159.030  0.00  0.00     0.059 A 
HETATM    6  C   UNK     0     194.900 180.849 160.492  0.00  0.00     0.232 A 
HETATM    7  C   UNK     0     199.463 179.580 159.493  0.00  0.00     0.062 A 
HETATM    8  C   UNK     0     195.590 180.740 161.954  0.00  0.00     0.146 A 
HETATM    9  C   UNK     0     197.163 180.093 157.515  0.00  0.00     0.051 A 
HETATM   10  O   UNK     0     193.420 181.240 160.419  0.00  0.00    -0.168 OA
HETATM   11  C   UNK     0     199.699 179.440 157.986  0.00  0.00     0.018 A 
HETATM   12  C   UNK     0     198.549 179.696 156.997  0.00  0.00     0.040 A 
HETATM   13 Cl   UNK     0     201.099 179.039 157.451  0.00  0.00    -0.091 Cl
ENDROOT
BRANCH   3  14
HETATM   14  C   UNK     0     199.565 179.677 161.926  0.00  0.00    -0.027 A 
HETATM   15  C   UNK     0     199.915 178.227 162.286  0.00  0.00     0.024 A 
HETATM   16  C   UNK     0     201.285 177.881 162.875  0.00  0.00     0.004 A 
HETATM   17  C   UNK     0     202.316 179.005 163.106  0.00  0.00     0.001 A 
HETATM   18  C   UNK     0     201.986 180.468 162.752  0.00  0.00     0.004 A 
HETATM   19  C   UNK     0     200.596 180.800 162.156  0.00  0.00     0.024 A 
ENDBRANCH   3  14
TORSDOF 1
ENDMDL
MODEL 5
REMARK VINA RESULT:      -6.7     59.551     61.439
REMARK  1 active torsions:
REMARK  status: ('A' for Active; 'I' for Inactive)
REMARK    1  A    between atoms: C_3  and  C_9 
ROOT
HETATM    1  C   UNK     0     128.907 153.663 161.260  0.00  0.00     0.013 A 
HETATM    2  N   UNK     0     129.280 151.223 160.740  0.00  0.00    -0.241 NA
HETATM    3  C   UNK     0     129.461 152.729 160.546  0.00  0.00     0.071 A 
HETATM    4  N   UNK     0     127.333 152.716 163.210  0.00  0.00    -0.223 NA
HETATM    5  C   UNK     0     127.934 153.683 162.478  0.00  0.00     0.059 A 
HETATM    6  C   UNK     0     127.479 151.208 162.994  0.00  0.00     0.232 A 
HETATM    7  C   UNK     0     129.393 155.004 160.681  0.00  0.00     0.062 A 
HETATM    8  C   UNK     0     128.389 150.526 161.840  0.00  0.00     0.146 A 
HETATM    9  C   UNK     0     127.473 155.022 163.084  0.00  0.00     0.051 A 
HETATM   10  O   UNK     0     126.705 150.285 163.942  0.00  0.00    -0.168 OA
HETATM   11  C   UNK     0     128.932 156.334 161.287  0.00  0.00     0.018 A 
HETATM   12  C   UNK     0     127.972 156.342 162.489  0.00  0.00     0.040 A 
HETATM   13 Cl   UNK     0     129.431 157.676 160.691  0.00  0.00    -0.091 Cl
ENDROOT
BRANCH   3  14
HETATM   14  C   UNK     0     130.381 153.179 159.405  0.00  0.00    -0.027 A 
HETATM   15  C   UNK     0     129.811 153.399 157.997  0.00  0.00     0.024 A 
HETATM   16  C   UNK     0     130.721 153.849 156.851  0.00  0.00     0.004 A 
HETATM   17  C   UNK     0     132.223 154.080 157.122  0.00  0.00     0.001 A 
HETATM   18  C   UNK     0     132.817 153.865 158.528  0.00  0.00     0.004 A 
HETATM   19  C   UNK     0     131.882 153.411 159.675  0.00  0.00     0.024 A 
ENDBRANCH   3  14
TORSDOF 1
ENDMDL
MODEL 6
REMARK VINA RESULT:      -6.6     41.527     43.287
REMARK  1 active torsions:
REMARK  status: ('A' for Active; 'I' for Inactive)
REMARK    1  A    between atoms: C_3  and  C_9 
ROOT
HETATM    1  C   UNK     0     158.741 165.054 149.666  0.00  0.00     0.013 A 
HETATM    2  N   UNK     0     159.987 166.865 150.901  0.00  0.00    -0.241 NA
HETATM    3  C   UNK     0     159.692 165.936 149.723  0.00  0.00     0.071 A 
HETATM    4  N   UNK     0     157.240 164.966 151.884  0.00  0.00    -0.223 NA
HETATM    5  C   UNK     0     157.610 164.593 150.638  0.00  0.00     0.059 A 
HETATM    6  C   UNK     0     157.914 166.047 152.733  0.00  0.00     0.232 A 
HETATM    7  C   UNK     0     158.852 164.376 148.288  0.00  0.00     0.062 A 
HETATM    8  C   UNK     0     159.193 166.924 152.262  0.00  0.00     0.146 A 
HETATM    9  C   UNK     0     156.630 163.481 150.219  0.00  0.00     0.051 A 
HETATM   10  O   UNK     0     157.331 166.312 154.125  0.00  0.00    -0.168 OA
HETATM   11  C   UNK     0     157.874 163.270 147.877  0.00  0.00     0.018 A 
HETATM   12  C   UNK     0     156.763 162.823 148.842  0.00  0.00     0.040 A 
HETATM   13 Cl   UNK     0     158.001 162.598 146.484  0.00  0.00    -0.091 Cl
ENDROOT
BRANCH   3  14
HETATM   14  C   UNK     0     160.603 166.057 148.495  0.00  0.00    -0.027 A 
HETATM   15  C   UNK     0     161.864 165.189 148.382  0.00  0.00     0.024 A 
HETATM   16  C   UNK     0     162.779 165.301 147.161  0.00  0.00     0.004 A 
HETATM   17  C   UNK     0     162.424 166.298 146.037  0.00  0.00     0.001 A 
HETATM   18  C   UNK     0     161.163 167.180 146.129  0.00  0.00     0.004 A 
HETATM   19  C   UNK     0     160.249 167.053 147.372  0.00  0.00     0.024 A 
ENDBRANCH   3  14
TORSDOF 1
ENDMDL
MODEL 7
REMARK VINA RESULT:      -6.5     57.620     60.476
REMARK  1 active torsions:
REMARK  status: ('A' for Active; 'I' for Inactive)
REMARK    1  A    between atoms: C_3  and  C_9 
ROOT
HETATM    1  C   UNK     0     129.883 152.132 161.093  0.00  0.00     0.013 A 
HETATM    2  N   UNK     0     130.897 154.196 160.058  0.00  0.00    -0.241 NA
HETATM    3  C   UNK     0     130.884 152.744 160.534  0.00  0.00     0.071 A 
HETATM    4  N   UNK     0     127.714 153.680 161.370  0.00  0.00    -0.223 NA
HETATM    5  C   UNK     0     128.428 152.537 161.484  0.00  0.00     0.059 A 
HETATM    6  C   UNK     0     128.215 154.993 160.763  0.00  0.00     0.232 A 
HETATM    7  C   UNK     0     130.355 150.697 161.390  0.00  0.00     0.062 A 
HETATM    8  C   UNK     0     129.700 155.219 160.155  0.00  0.00     0.146 A 
HETATM    9  C   UNK     0     127.489 151.515 162.154  0.00  0.00     0.051 A 
HETATM   10  O   UNK     0     127.236 156.171 160.732  0.00  0.00    -0.168 OA
HETATM   11  C   UNK     0     129.417 149.685 162.056  0.00  0.00     0.018 A 
HETATM   12  C   UNK     0     127.985 150.094 162.438  0.00  0.00     0.040 A 
HETATM   13 Cl   UNK     0     129.910 148.242 162.348  0.00  0.00    -0.091 Cl
ENDROOT
BRANCH   3  14
HETATM   14  C   UNK     0     132.171 151.932 160.335  0.00  0.00    -0.027 A 
HETATM   15  C   UNK     0     133.243 151.907 161.433  0.00  0.00     0.024 A 
HETATM   16  C   UNK     0     134.530 151.100 161.244  0.00  0.00     0.004 A 
HETATM   17  C   UNK     0     134.744 150.310 159.936  0.00  0.00     0.001 A 
HETATM   18  C   UNK     0     133.681 150.322 158.820  0.00  0.00     0.004 A 
HETATM   19  C   UNK     0     132.385 151.143 159.028  0.00  0.00     0.024 A 
ENDBRANCH   3  14
TORSDOF 1
ENDMDL
MODEL 8
REMARK VINA RESULT:      -6.5     29.684     30.947
REMARK  1 active torsions:
REMARK  status: ('A' for Active; 'I' for Inactive)
REMARK    1  A    between atoms: C_3  and  C_9 
ROOT
HETATM    1  C   UNK     0     199.697 177.473 161.087  0.00  0.00     0.013 A 
HETATM    2  N   UNK     0     198.678 175.414 160.049  0.00  0.00    -0.241 NA
HETATM    3  C   UNK     0     198.694 176.864 160.530  0.00  0.00     0.071 A 
HETATM    4  N   UNK     0     201.866 175.923 161.350  0.00  0.00    -0.223 NA
HETATM    5  C   UNK     0     201.153 177.066 161.471  0.00  0.00     0.059 A 
HETATM    6  C   UNK     0     201.362 174.612 160.741  0.00  0.00     0.232 A 
HETATM    7  C   UNK     0     199.227 178.908 161.389  0.00  0.00     0.062 A 
HETATM    8  C   UNK     0     199.874 174.389 160.139  0.00  0.00     0.146 A 
HETATM    9  C   UNK     0     202.096 178.085 162.141  0.00  0.00     0.051 A 
HETATM   10  O   UNK     0     202.340 173.433 160.703  0.00  0.00    -0.168 OA
HETATM   11  C   UNK     0     200.169 179.918 162.055  0.00  0.00     0.018 A 
HETATM   12  C   UNK     0     201.603 179.506 162.431  0.00  0.00     0.040 A 
HETATM   13 Cl   UNK     0     199.679 181.359 162.353  0.00  0.00    -0.091 Cl
ENDROOT
BRANCH   3  14
HETATM   14  C   UNK     0     197.407 177.677 160.338  0.00  0.00    -0.027 A 
HETATM   15  C   UNK     0     197.191 178.486 159.052  0.00  0.00     0.024 A 
HETATM   16  C   UNK     0     195.910 179.300 158.851  0.00  0.00     0.004 A 
HETATM   17  C   UNK     0     194.833 179.302 159.956  0.00  0.00     0.001 A 
HETATM   18  C   UNK     0     195.029 178.497 161.256  0.00  0.00     0.004 A 
HETATM   19  C   UNK     0     196.330 177.679 161.442  0.00  0.00     0.024 A 
ENDBRANCH   3  14
TORSDOF 1
ENDMDL
MODEL 9
REMARK VINA RESULT:      -6.4     29.801     30.868
REMARK  1 active torsions:
REMARK  status: ('A' for Active; 'I' for Inactive)
REMARK    1  A    between atoms: C_3  and  C_9 
ROOT
HETATM    1  C   UNK     0     196.056 179.159 160.901  0.00  0.00     0.013 A 
HETATM    2  N   UNK     0     193.716 179.742 160.165  0.00  0.00    -0.241 NA
HETATM    3  C   UNK     0     195.019 178.944 160.149  0.00  0.00     0.071 A 
HETATM    4  N   UNK     0     195.736 181.218 162.585  0.00  0.00    -0.223 NA
HETATM    5  C   UNK     0     196.407 180.189 162.019  0.00  0.00     0.059 A 
HETATM    6  C   UNK     0     194.318 181.669 162.226  0.00  0.00     0.232 A 
HETATM    7  C   UNK     0     197.107 178.102 160.515  0.00  0.00     0.062 A 
HETATM    8  C   UNK     0     193.388 180.972 161.097  0.00  0.00     0.146 A 
HETATM    9  C   UNK     0     197.779 180.142 162.718  0.00  0.00     0.051 A 
HETATM   10  O   UNK     0     193.745 182.865 162.995  0.00  0.00    -0.168 OA
HETATM   11  C   UNK     0     198.470 178.060 161.213  0.00  0.00     0.018 A 
HETATM   12  C   UNK     0     198.807 179.080 162.314  0.00  0.00     0.040 A 
HETATM   13 Cl   UNK     0     199.517 176.988 160.811  0.00  0.00    -0.091 Cl
ENDROOT
BRANCH   3  14
HETATM   14  C   UNK     0     195.113 177.782 159.152  0.00  0.00    -0.027 A 
HETATM   15  C   UNK     0     194.733 176.360 159.588  0.00  0.00     0.024 A 
HETATM   16  C   UNK     0     194.824 175.194 158.600  0.00  0.00     0.004 A 
HETATM   17  C   UNK     0     195.302 175.458 157.157  0.00  0.00     0.001 A 
HETATM   18  C   UNK     0     195.688 176.878 156.697  0.00  0.00     0.004 A 
HETATM   19  C   UNK     0     195.591 178.046 157.709  0.00  0.00     0.024 A 
ENDBRANCH   3  14
TORSDOF 1
ENDMDL
MODEL 10
REMARK VINA RESULT:      -6.1      8.600     10.008
REMARK  1 active torsions:
REMARK  status: ('A' for Active; 'I' for Inactive)
REMARK    1  A    between atoms: C_3  and  C_9 
ROOT
HETATM    1  C   UNK     0     178.785 162.345 187.822  0.00  0.00     0.013 A 
HETATM    2  N   UNK     0     178.815 159.824 187.803  0.00  0.00    -0.241 NA
HETATM    3  C   UNK     0     179.319 161.222 187.446  0.00  0.00     0.071 A 
HETATM    4  N   UNK     0     176.613 162.026 189.357  0.00  0.00    -0.223 NA
HETATM    5  C   UNK     0     177.552 162.738 188.693  0.00  0.00     0.059 A 
HETATM    6  C   UNK     0     176.524 160.499 189.421  0.00  0.00     0.232 A 
HETATM    7  C   UNK     0     179.647 163.467 187.213  0.00  0.00     0.062 A 
HETATM    8  C   UNK     0     177.557 159.486 188.692  0.00  0.00     0.146 A 
HETATM    9  C   UNK     0     177.210 164.221 188.934  0.00  0.00     0.051 A 
HETATM   10  O   UNK     0     175.374 159.896 190.234  0.00  0.00    -0.168 OA
HETATM   11  C   UNK     0     179.302 164.940 187.456  0.00  0.00     0.018 A 
HETATM   12  C   UNK     0     178.084 165.317 188.316  0.00  0.00     0.040 A 
HETATM   13 Cl   UNK     0     180.180 166.058 186.834  0.00  0.00    -0.091 Cl
ENDROOT
BRANCH   3  14
HETATM   14  C   UNK     0     180.570 161.309 186.562  0.00  0.00    -0.027 A 
HETATM   15  C   UNK     0     180.463 161.068 185.050  0.00  0.00     0.024 A 
HETATM   16  C   UNK     0     181.705 161.152 184.160  0.00  0.00     0.004 A 
HETATM   17  C   UNK     0     183.072 161.482 184.795  0.00  0.00     0.001 A 
HETATM   18  C   UNK     0     183.203 161.727 186.311  0.00  0.00     0.004 A 
HETATM   19  C   UNK     0     181.936 161.638 187.197  0.00  0.00     0.024 A 
ENDBRANCH   3  14
TORSDOF 1
ENDMDL
