REMARK  0 active torsions:
REMARK  status: ('A' for Active; 'I' for Inactive)
REMARK       I    between atoms: N_8  and  C_16 
ROOT
HETATM    1  C   UNK     0      -4.326   0.492   0.000  0.00  0.00     0.005 A 
HETATM    2  C   UNK     0      -4.028  -1.014   0.000  0.00  0.00     0.007 A 
HETATM    3  C   UNK     0      -2.578  -1.506   0.000  0.00  0.00     0.044 A 
HETATM    4  C   UNK     0      -3.181   1.501   0.000  0.00  0.00     0.028 A 
HETATM    5  C   UNK     0      -1.431  -0.495   0.000  0.00  0.00     0.040 A 
HETATM    6  C   UNK     0      -1.731   1.016   0.000  0.00  0.00    -0.008 A 
HETATM    7  C   UNK     0      -0.733   2.203   0.000  0.00  0.00     0.024 A 
HETATM    8  N   UNK     0      -0.052  -1.204   0.000  0.00  0.00    -0.283 N 
HETATM    9  C   UNK     0       0.811   2.170   0.000  0.00  0.00     0.128 A 
HETATM   10  C   UNK     0       1.739   0.935   0.000  0.00  0.00     0.015 A 
HETATM   11  C   UNK     0       1.361  -0.563   0.000  0.00  0.00     0.042 A 
HETATM   12  C   UNK     0       2.469  -1.636   0.000  0.00  0.00     0.044 A 
HETATM   13  C   UNK     0       3.954  -1.212   0.000  0.00  0.00     0.007 A 
HETATM   14  C   UNK     0       4.326   0.294   0.000  0.00  0.00     0.005 A 
HETATM   15  C   UNK     0       3.216   1.359   0.000  0.00  0.00     0.030 A 
HETATM   16  C   UNK     0      -0.090  -2.734   0.000  0.00  0.00     0.271 C 
HETATM   17  N   UNK     0      -1.434  -3.467   0.000  0.00  0.00    -0.053 NA
HETATM   18  O   UNK     0       1.216  -3.532   0.000  0.00  0.00    -0.154 OA
HETATM   19  O   UNK     0       1.509   3.532   0.000  0.00  0.00    -0.191 OA
ENDROOT
TORSDOF 0
