MODEL 1
REMARK VINA RESULT:      -5.8      0.000      0.000
REMARK  4 active torsions:
REMARK  status: ('A' for Active; 'I' for Inactive)
REMARK    1  A    between atoms: C_2  and  C_3 
REMARK    2  A    between atoms: C_3  and  C_4 
REMARK    3  A    between atoms: C_4  and  C_6 
REMARK    4  A    between atoms: C_6  and  C_7 
ROOT
HETATM    1  C   UNK     0     159.586 187.065 192.952  0.00  0.00     0.032 A 
HETATM    2  C   UNK     0     158.793 188.384 192.889  0.00  0.00     0.155 A 
HETATM    3  N   UNK     0     158.758 189.321 194.110  0.00  0.00    -0.156 NA
HETATM    4  C   UNK     0     160.343 186.683 194.237  0.00  0.00     0.069 A 
HETATM    5  C   UNK     0     160.308 187.619 195.459  0.00  0.00     0.295 A 
HETATM    6  O   UNK     0     161.066 187.237 196.744  0.00  0.00    -0.188 OA
HETATM    7  O   UNK     0     159.516 188.938 195.396  0.00  0.00    -0.210 OA
ENDROOT
BRANCH   1   8
HETATM    8  C   UNK     0     159.621 186.129 191.730  0.00  0.00     0.002 C 
BRANCH   8   9
HETATM    9  C   UNK     0     160.918 185.975 190.914  0.00  0.00     0.000 C 
HETATM   10  C   UNK     0     161.299 187.037 189.866  0.00  0.00     0.000 C 
BRANCH   9  11
HETATM   11  C   UNK     0     161.834 184.759 191.147  0.00  0.00     0.000 C 
BRANCH  11  12
HETATM   12  C   UNK     0     161.307 183.536 191.920  0.00  0.00     0.000 C 
HETATM   13  C   UNK     0     161.682 183.341 193.402  0.00  0.00     0.000 C 
ENDBRANCH  11  12
ENDBRANCH   9  11
ENDBRANCH   8   9
ENDBRANCH   1   8
TORSDOF 4
ENDMDL
MODEL 2
REMARK VINA RESULT:      -5.2     55.675     56.839
REMARK  4 active torsions:
REMARK  status: ('A' for Active; 'I' for Inactive)
REMARK    1  A    between atoms: C_2  and  C_3 
REMARK    2  A    between atoms: C_3  and  C_4 
REMARK    3  A    between atoms: C_4  and  C_6 
REMARK    4  A    between atoms: C_6  and  C_7 
ROOT
HETATM    1  C   UNK     0     132.694 149.799 161.711  0.00  0.00     0.032 A 
HETATM    2  C   UNK     0     132.898 149.996 160.198  0.00  0.00     0.155 A 
HETATM    3  N   UNK     0     134.027 149.247 159.468  0.00  0.00    -0.156 NA
HETATM    4  C   UNK     0     133.620 148.852 162.495  0.00  0.00     0.069 A 
HETATM    5  C   UNK     0     134.751 148.102 161.766  0.00  0.00     0.295 A 
HETATM    6  O   UNK     0     135.678 147.154 162.550  0.00  0.00    -0.188 OA
HETATM    7  O   UNK     0     134.955 148.300 160.252  0.00  0.00    -0.210 OA
ENDROOT
BRANCH   1   8
HETATM    8  C   UNK     0     131.563 150.548 162.441  0.00  0.00     0.002 C 
BRANCH   8   9
HETATM    9  C   UNK     0     130.133 149.977 162.438  0.00  0.00     0.000 C 
HETATM   10  C   UNK     0     128.943 150.878 162.818  0.00  0.00     0.000 C 
BRANCH   9  11
HETATM   11  C   UNK     0     129.893 148.505 162.055  0.00  0.00     0.000 C 
BRANCH  11  12
HETATM   12  C   UNK     0     129.622 148.125 160.588  0.00  0.00     0.000 C 
HETATM   13  C   UNK     0     128.760 149.044 159.701  0.00  0.00     0.000 C 
ENDBRANCH  11  12
ENDBRANCH   9  11
ENDBRANCH   8   9
ENDBRANCH   1   8
TORSDOF 4
ENDMDL
MODEL 3
REMARK VINA RESULT:      -5.1     55.652     56.329
REMARK  4 active torsions:
REMARK  status: ('A' for Active; 'I' for Inactive)
REMARK    1  A    between atoms: C_2  and  C_3 
REMARK    2  A    between atoms: C_3  and  C_4 
REMARK    3  A    between atoms: C_4  and  C_6 
REMARK    4  A    between atoms: C_6  and  C_7 
ROOT
HETATM    1  C   UNK     0     133.167 149.628 161.753  0.00  0.00     0.032 A 
HETATM    2  C   UNK     0     133.622 150.064 160.348  0.00  0.00     0.155 A 
HETATM    3  N   UNK     0     134.859 149.413 159.703  0.00  0.00    -0.156 NA
HETATM    4  C   UNK     0     133.949 148.543 162.514  0.00  0.00     0.069 A 
HETATM    5  C   UNK     0     135.188 147.892 161.870  0.00  0.00     0.295 A 
HETATM    6  O   UNK     0     135.971 146.806 162.631  0.00  0.00    -0.188 OA
HETATM    7  O   UNK     0     135.643 148.327 160.464  0.00  0.00    -0.210 OA
ENDROOT
BRANCH   1   8
HETATM    8  C   UNK     0     131.928 150.279 162.397  0.00  0.00     0.002 C 
BRANCH   8   9
HETATM    9  C   UNK     0     130.516 149.859 161.949  0.00  0.00     0.000 C 
HETATM   10  C   UNK     0     129.992 148.449 162.277  0.00  0.00     0.000 C 
BRANCH   9  11
HETATM   11  C   UNK     0     129.628 150.849 161.173  0.00  0.00     0.000 C 
BRANCH  11  12
HETATM   12  C   UNK     0     128.850 151.942 161.930  0.00  0.00     0.000 C 
HETATM   13  C   UNK     0     128.012 151.573 163.169  0.00  0.00     0.000 C 
ENDBRANCH  11  12
ENDBRANCH   9  11
ENDBRANCH   8   9
ENDBRANCH   1   8
TORSDOF 4
ENDMDL
MODEL 4
REMARK VINA RESULT:      -5.1     50.378     52.002
REMARK  4 active torsions:
REMARK  status: ('A' for Active; 'I' for Inactive)
REMARK    1  A    between atoms: C_2  and  C_3 
REMARK    2  A    between atoms: C_3  and  C_4 
REMARK    3  A    between atoms: C_4  and  C_6 
REMARK    4  A    between atoms: C_6  and  C_7 
ROOT
HETATM    1  C   UNK     0     201.573 178.668 162.068  0.00  0.00     0.032 A 
HETATM    2  C   UNK     0     201.760 177.853 163.361  0.00  0.00     0.155 A 
HETATM    3  N   UNK     0     201.991 176.333 163.286  0.00  0.00    -0.156 NA
HETATM    4  C   UNK     0     201.616 177.963 160.700  0.00  0.00     0.069 A 
HETATM    5  C   UNK     0     201.847 176.442 160.624  0.00  0.00     0.295 A 
HETATM    6  O   UNK     0     201.891 175.736 159.256  0.00  0.00    -0.188 OA
HETATM    7  O   UNK     0     202.035 175.627 161.917  0.00  0.00    -0.210 OA
ENDROOT
BRANCH   1   8
HETATM    8  C   UNK     0     201.342 180.189 162.143  0.00  0.00     0.002 C 
BRANCH   8   9
HETATM    9  C   UNK     0     200.048 180.801 161.573  0.00  0.00     0.000 C 
HETATM   10  C   UNK     0     200.046 181.421 160.164  0.00  0.00     0.000 C 
BRANCH   9  11
HETATM   11  C   UNK     0     198.758 180.793 162.413  0.00  0.00     0.000 C 
BRANCH  11  12
HETATM   12  C   UNK     0     197.947 179.492 162.565  0.00  0.00     0.000 C 
HETATM   13  C   UNK     0     197.952 178.444 161.436  0.00  0.00     0.000 C 
ENDBRANCH  11  12
ENDBRANCH   9  11
ENDBRANCH   8   9
ENDBRANCH   1   8
TORSDOF 4
ENDMDL
MODEL 5
REMARK VINA RESULT:      -5.0     29.373     30.922
REMARK  4 active torsions:
REMARK  status: ('A' for Active; 'I' for Inactive)
REMARK    1  A    between atoms: C_2  and  C_3 
REMARK    2  A    between atoms: C_3  and  C_4 
REMARK    3  A    between atoms: C_4  and  C_6 
REMARK    4  A    between atoms: C_6  and  C_7 
ROOT
HETATM    1  C   UNK     0     162.503 181.006 163.837  0.00  0.00     0.032 A 
HETATM    2  C   UNK     0     163.738 181.461 163.038  0.00  0.00     0.155 A 
HETATM    3  N   UNK     0     165.090 180.754 163.241  0.00  0.00    -0.156 NA
HETATM    4  C   UNK     0     162.620 179.844 164.840  0.00  0.00     0.069 A 
HETATM    5  C   UNK     0     163.973 179.136 165.044  0.00  0.00     0.295 A 
HETATM    6  O   UNK     0     164.090 177.973 166.047  0.00  0.00    -0.188 OA
HETATM    7  O   UNK     0     165.208 179.591 164.245  0.00  0.00    -0.210 OA
ENDROOT
BRANCH   1   8
HETATM    8  C   UNK     0     161.150 181.713 163.633  0.00  0.00     0.002 C 
BRANCH   8   9
HETATM    9  C   UNK     0     160.087 181.092 162.707  0.00  0.00     0.000 C 
HETATM   10  C   UNK     0     158.780 181.852 162.416  0.00  0.00     0.000 C 
BRANCH   9  11
HETATM   11  C   UNK     0     160.332 179.710 162.074  0.00  0.00     0.000 C 
BRANCH  11  12
HETATM   12  C   UNK     0     160.948 179.607 160.666  0.00  0.00     0.000 C 
HETATM   13  C   UNK     0     160.064 179.810 159.421  0.00  0.00     0.000 C 
ENDBRANCH  11  12
ENDBRANCH   9  11
ENDBRANCH   8   9
ENDBRANCH   1   8
TORSDOF 4
ENDMDL
MODEL 6
REMARK VINA RESULT:      -4.9     55.279     56.386
REMARK  4 active torsions:
REMARK  status: ('A' for Active; 'I' for Inactive)
REMARK    1  A    between atoms: C_2  and  C_3 
REMARK    2  A    between atoms: C_3  and  C_4 
REMARK    3  A    between atoms: C_4  and  C_6 
REMARK    4  A    between atoms: C_6  and  C_7 
ROOT
HETATM    1  C   UNK     0     127.754 153.302 162.349  0.00  0.00     0.032 A 
HETATM    2  C   UNK     0     127.376 154.681 162.921  0.00  0.00     0.155 A 
HETATM    3  N   UNK     0     127.078 155.854 161.968  0.00  0.00    -0.156 NA
HETATM    4  C   UNK     0     127.834 153.095 160.826  0.00  0.00     0.069 A 
HETATM    5  C   UNK     0     127.536 154.268 159.873  0.00  0.00     0.295 A 
HETATM    6  O   UNK     0     127.616 154.061 158.349  0.00  0.00    -0.188 OA
HETATM    7  O   UNK     0     127.158 155.647 160.444  0.00  0.00    -0.210 OA
ENDROOT
BRANCH   1   8
HETATM    8  C   UNK     0     128.052 152.129 163.302  0.00  0.00     0.002 C 
BRANCH   8   9
HETATM    9  C   UNK     0     128.663 150.826 162.753  0.00  0.00     0.000 C 
HETATM   10  C   UNK     0     127.749 149.640 162.393  0.00  0.00     0.000 C 
BRANCH   9  11
HETATM   11  C   UNK     0     130.186 150.710 162.565  0.00  0.00     0.000 C 
BRANCH  11  12
HETATM   12  C   UNK     0     130.838 149.325 162.397  0.00  0.00     0.000 C 
HETATM   13  C   UNK     0     132.369 149.179 162.476  0.00  0.00     0.000 C 
ENDBRANCH  11  12
ENDBRANCH   9  11
ENDBRANCH   8   9
ENDBRANCH   1   8
TORSDOF 4
ENDMDL
MODEL 7
REMARK VINA RESULT:      -4.8     44.221     45.799
REMARK  4 active torsions:
REMARK  status: ('A' for Active; 'I' for Inactive)
REMARK    1  A    between atoms: C_2  and  C_3 
REMARK    2  A    between atoms: C_3  and  C_4 
REMARK    3  A    between atoms: C_4  and  C_6 
REMARK    4  A    between atoms: C_6  and  C_7 
ROOT
HETATM    1  C   UNK     0     155.836 154.860 160.322  0.00  0.00     0.032 A 
HETATM    2  C   UNK     0     155.617 153.346 160.500  0.00  0.00     0.155 A 
HETATM    3  N   UNK     0     155.819 152.393 159.307  0.00  0.00    -0.156 NA
HETATM    4  C   UNK     0     156.256 155.421 158.952  0.00  0.00     0.069 A 
HETATM    5  C   UNK     0     156.458 154.469 157.758  0.00  0.00     0.295 A 
HETATM    6  O   UNK     0     156.879 155.030 156.387  0.00  0.00    -0.188 OA
HETATM    7  O   UNK     0     156.239 152.955 157.936  0.00  0.00    -0.210 OA
ENDROOT
BRANCH   1   8
HETATM    8  C   UNK     0     155.634 155.812 161.516  0.00  0.00     0.002 C 
BRANCH   8   9
HETATM    9  C   UNK     0     154.213 156.240 161.928  0.00  0.00     0.000 C 
HETATM   10  C   UNK     0     153.249 156.821 160.878  0.00  0.00     0.000 C 
BRANCH   9  11
HETATM   11  C   UNK     0     153.757 156.087 163.391  0.00  0.00     0.000 C 
BRANCH  11  12
HETATM   12  C   UNK     0     154.513 156.821 164.514  0.00  0.00     0.000 C 
HETATM   13  C   UNK     0     153.854 157.005 165.894  0.00  0.00     0.000 C 
ENDBRANCH  11  12
ENDBRANCH   9  11
ENDBRANCH   8   9
ENDBRANCH   1   8
TORSDOF 4
ENDMDL
MODEL 8
REMARK VINA RESULT:      -4.8     45.839     47.273
REMARK  4 active torsions:
REMARK  status: ('A' for Active; 'I' for Inactive)
REMARK    1  A    between atoms: C_2  and  C_3 
REMARK    2  A    between atoms: C_3  and  C_4 
REMARK    3  A    between atoms: C_4  and  C_6 
REMARK    4  A    between atoms: C_6  and  C_7 
ROOT
HETATM    1  C   UNK     0     157.831 165.365 151.892  0.00  0.00     0.032 A 
HETATM    2  C   UNK     0     157.526 165.678 153.368  0.00  0.00     0.155 A 
HETATM    3  N   UNK     0     157.892 167.054 153.955  0.00  0.00    -0.156 NA
HETATM    4  C   UNK     0     158.502 166.427 151.002  0.00  0.00     0.069 A 
HETATM    5  C   UNK     0     158.869 167.803 151.588  0.00  0.00     0.295 A 
HETATM    6  O   UNK     0     159.540 168.866 150.698  0.00  0.00    -0.188 OA
HETATM    7  O   UNK     0     158.564 168.117 153.065  0.00  0.00    -0.210 OA
ENDROOT
BRANCH   1   8
HETATM    8  C   UNK     0     157.465 163.989 151.305  0.00  0.00     0.002 C 
BRANCH   8   9
HETATM    9  C   UNK     0     157.785 163.669 149.833  0.00  0.00     0.000 C 
HETATM   10  C   UNK     0     159.205 163.227 149.432  0.00  0.00     0.000 C 
BRANCH   9  11
HETATM   11  C   UNK     0     156.685 163.790 148.763  0.00  0.00     0.000 C 
BRANCH  11  12
HETATM   12  C   UNK     0     155.814 165.058 148.694  0.00  0.00     0.000 C 
HETATM   13  C   UNK     0     156.336 166.313 147.970  0.00  0.00     0.000 C 
ENDBRANCH  11  12
ENDBRANCH   9  11
ENDBRANCH   8   9
ENDBRANCH   1   8
TORSDOF 4
ENDMDL
MODEL 9
REMARK VINA RESULT:      -4.8     24.839     25.767
REMARK  4 active torsions:
REMARK  status: ('A' for Active; 'I' for Inactive)
REMARK    1  A    between atoms: C_2  and  C_3 
REMARK    2  A    between atoms: C_3  and  C_4 
REMARK    3  A    between atoms: C_4  and  C_6 
REMARK    4  A    between atoms: C_6  and  C_7 
ROOT
HETATM    1  C   UNK     0     142.211 171.473 182.733  0.00  0.00     0.032 A 
HETATM    2  C   UNK     0     142.784 172.890 182.918  0.00  0.00     0.155 A 
HETATM    3  N   UNK     0     144.264 173.171 182.600  0.00  0.00    -0.156 NA
HETATM    4  C   UNK     0     143.119 170.335 182.231  0.00  0.00     0.069 A 
HETATM    5  C   UNK     0     144.600 170.615 181.912  0.00  0.00     0.295 A 
HETATM    6  O   UNK     0     145.508 169.477 181.409  0.00  0.00    -0.188 OA
HETATM    7  O   UNK     0     145.172 172.033 182.097  0.00  0.00    -0.210 OA
ENDROOT
BRANCH   1   8
HETATM    8  C   UNK     0     140.731 171.193 183.052  0.00  0.00     0.002 C 
BRANCH   8   9
HETATM    9  C   UNK     0     140.264 171.089 184.516  0.00  0.00     0.000 C 
HETATM   10  C   UNK     0     138.834 171.513 184.900  0.00  0.00     0.000 C 
BRANCH   9  11
HETATM   11  C   UNK     0     141.226 170.563 185.596  0.00  0.00     0.000 C 
BRANCH  11  12
HETATM   12  C   UNK     0     141.391 171.330 186.921  0.00  0.00     0.000 C 
HETATM   13  C   UNK     0     141.710 172.836 186.905  0.00  0.00     0.000 C 
ENDBRANCH  11  12
ENDBRANCH   9  11
ENDBRANCH   8   9
ENDBRANCH   1   8
TORSDOF 4
ENDMDL
MODEL 10
REMARK VINA RESULT:      -4.7     54.433     56.145
REMARK  4 active torsions:
REMARK  status: ('A' for Active; 'I' for Inactive)
REMARK    1  A    between atoms: C_2  and  C_3 
REMARK    2  A    between atoms: C_3  and  C_4 
REMARK    3  A    between atoms: C_4  and  C_6 
REMARK    4  A    between atoms: C_6  and  C_7 
ROOT
HETATM    1  C   UNK     0     177.371 151.330 154.499  0.00  0.00     0.032 A 
HETATM    2  C   UNK     0     177.511 152.827 154.832  0.00  0.00     0.155 A 
HETATM    3  N   UNK     0     176.413 153.817 154.401  0.00  0.00    -0.156 NA
HETATM    4  C   UNK     0     176.135 150.822 153.736  0.00  0.00     0.069 A 
HETATM    5  C   UNK     0     175.036 151.812 153.305  0.00  0.00     0.295 A 
HETATM    6  O   UNK     0     173.799 151.304 152.541  0.00  0.00    -0.188 OA
HETATM    7  O   UNK     0     175.175 153.309 153.637  0.00  0.00    -0.210 OA
ENDROOT
BRANCH   1   8
HETATM    8  C   UNK     0     178.470 150.340 154.930  0.00  0.00     0.002 C 
BRANCH   8   9
HETATM    9  C   UNK     0     178.996 149.291 153.933  0.00  0.00     0.000 C 
HETATM   10  C   UNK     0     179.572 149.738 152.577  0.00  0.00     0.000 C 
BRANCH   9  11
HETATM   11  C   UNK     0     178.946 147.795 154.293  0.00  0.00     0.000 C 
BRANCH  11  12
HETATM   12  C   UNK     0     178.669 146.748 153.197  0.00  0.00     0.000 C 
HETATM   13  C   UNK     0     177.313 146.740 152.466  0.00  0.00     0.000 C 
ENDBRANCH  11  12
ENDBRANCH   9  11
ENDBRANCH   8   9
ENDBRANCH   1   8
TORSDOF 4
ENDMDL
