MODEL 1
REMARK VINA RESULT:      -8.2      0.000      0.000
REMARK  0 active torsions:
REMARK  status: ('A' for Active; 'I' for Inactive)
ROOT
HETATM    1  O   UNK     0     169.224 144.188 194.346  0.00  0.00    -0.304 OA
HETATM    2  O   UNK     0     172.936 140.618 196.037  0.00  0.00    -0.152 OA
HETATM    3  N   UNK     0     171.559 141.025 193.699  0.00  0.00     0.418 N 
HETATM    4  N   UNK     0     171.090 142.596 195.575  0.00  0.00     0.440 N 
HETATM    5  C   UNK     0     170.505 142.039 193.218  0.00  0.00     0.326 A 
HETATM    6  C   UNK     0     170.467 141.348 191.843  0.00  0.00    -0.009 A 
HETATM    7  C   UNK     0     169.490 142.790 192.336  0.00  0.00     0.031 A 
HETATM    8  C   UNK     0     170.215 143.010 194.378  0.00  0.00     0.424 A 
HETATM    9  C   UNK     0     171.921 141.369 195.155  0.00  0.00     0.663 A 
HETATM   10  C   UNK     0     169.760 141.470 190.480  0.00  0.00    -0.032 A 
HETATM   11  C   UNK     0     168.732 144.007 192.900  0.00  0.00     0.072 A 
HETATM   12  C   UNK     0     171.498 140.229 192.076  0.00  0.00     0.024 A 
HETATM   13  C   UNK     0     169.233 142.325 190.891  0.00  0.00    -0.027 A 
HETATM   14  C   UNK     0     167.717 144.757 192.017  0.00  0.00     0.051 A 
HETATM   15  C   UNK     0     170.084 140.474 189.351  0.00  0.00     0.025 A 
HETATM   16  C   UNK     0     171.823 139.233 190.948  0.00  0.00     0.005 A 
HETATM   17  C   UNK     0     168.219 143.076 190.009  0.00  0.00     0.026 A 
HETATM   18  C   UNK     0     167.461 144.292 190.572  0.00  0.00     0.011 A 
HETATM   19  C   UNK     0     171.116 139.355 189.586  0.00  0.00     0.005 A 
ENDROOT
TORSDOF 0
ENDMDL
MODEL 2
REMARK VINA RESULT:      -8.0      1.521      4.040
REMARK  0 active torsions:
REMARK  status: ('A' for Active; 'I' for Inactive)
ROOT
HETATM    1  O   UNK     0     172.282 139.662 192.583  0.00  0.00    -0.304 OA
HETATM    2  O   UNK     0     172.198 142.078 197.435  0.00  0.00    -0.152 OA
HETATM    3  N   UNK     0     170.846 142.422 195.073  0.00  0.00     0.418 N 
HETATM    4  N   UNK     0     172.546 140.602 195.148  0.00  0.00     0.440 N 
HETATM    5  C   UNK     0     170.869 141.736 193.694  0.00  0.00     0.326 A 
HETATM    6  C   UNK     0     169.772 142.695 193.198  0.00  0.00    -0.009 A 
HETATM    7  C   UNK     0     170.553 141.379 192.230  0.00  0.00     0.031 A 
HETATM    8  C   UNK     0     171.920 140.611 193.741  0.00  0.00     0.424 A 
HETATM    9  C   UNK     0     171.882 141.722 195.971  0.00  0.00     0.663 A 
HETATM   10  C   UNK     0     168.947 142.989 191.931  0.00  0.00    -0.032 A 
HETATM   11  C   UNK     0     171.305 140.227 191.538  0.00  0.00     0.072 A 
HETATM   12  C   UNK     0     169.558 143.538 194.469  0.00  0.00     0.024 A 
HETATM   13  C   UNK     0     169.485 142.175 191.458  0.00  0.00    -0.027 A 
HETATM   14  C   UNK     0     170.989 139.872 190.074  0.00  0.00     0.051 A 
HETATM   15  C   UNK     0     167.907 144.125 191.936  0.00  0.00     0.025 A 
HETATM   16  C   UNK     0     168.518 144.674 194.473  0.00  0.00     0.005 A 
HETATM   17  C   UNK     0     169.169 141.819 189.993  0.00  0.00     0.026 A 
HETATM   18  C   UNK     0     169.920 140.667 189.301  0.00  0.00     0.011 A 
HETATM   19  C   UNK     0     167.693 144.968 193.208  0.00  0.00     0.005 A 
ENDROOT
TORSDOF 0
ENDMDL
MODEL 3
REMARK VINA RESULT:      -7.2     42.980     45.357
REMARK  0 active torsions:
REMARK  status: ('A' for Active; 'I' for Inactive)
ROOT
HETATM    1  O   UNK     0     128.136 142.753 187.912  0.00  0.00    -0.304 OA
HETATM    2  O   UNK     0     125.356 142.922 183.262  0.00  0.00    -0.152 OA
HETATM    3  N   UNK     0     124.921 143.824 185.816  0.00  0.00     0.418 N 
HETATM    4  N   UNK     0     127.063 142.624 185.390  0.00  0.00     0.440 N 
HETATM    5  C   UNK     0     125.710 143.776 187.138  0.00  0.00     0.326 A 
HETATM    6  C   UNK     0     124.575 144.539 187.843  0.00  0.00    -0.009 A 
HETATM    7  C   UNK     0     126.111 143.966 188.612  0.00  0.00     0.031 A 
HETATM    8  C   UNK     0     127.034 143.034 186.874  0.00  0.00     0.424 A 
HETATM    9  C   UNK     0     125.756 143.112 184.736  0.00  0.00     0.663 A 
HETATM   10  C   UNK     0     124.213 145.094 189.234  0.00  0.00    -0.032 A 
HETATM   11  C   UNK     0     127.458 143.419 189.121  0.00  0.00     0.072 A 
HETATM   12  C   UNK     0     123.600 144.720 186.666  0.00  0.00     0.024 A 
HETATM   13  C   UNK     0     125.165 144.703 189.578  0.00  0.00    -0.027 A 
HETATM   14  C   UNK     0     127.858 143.609 190.596  0.00  0.00     0.051 A 
HETATM   15  C   UNK     0     122.876 145.828 189.446  0.00  0.00     0.025 A 
HETATM   16  C   UNK     0     122.263 145.454 186.878  0.00  0.00     0.005 A 
HETATM   17  C   UNK     0     125.565 144.893 191.053  0.00  0.00     0.026 A 
HETATM   18  C   UNK     0     126.911 144.346 191.562  0.00  0.00     0.011 A 
HETATM   19  C   UNK     0     121.901 146.008 188.268  0.00  0.00     0.005 A 
ENDROOT
TORSDOF 0
ENDMDL
MODEL 4
REMARK VINA RESULT:      -7.2     54.768     55.530
REMARK  0 active torsions:
REMARK  status: ('A' for Active; 'I' for Inactive)
ROOT
HETATM    1  O   UNK     0     201.393 186.829 187.906  0.00  0.00    -0.304 OA
HETATM    2  O   UNK     0     204.201 186.600 183.274  0.00  0.00    -0.152 OA
HETATM    3  N   UNK     0     204.630 185.751 185.848  0.00  0.00     0.418 N 
HETATM    4  N   UNK     0     202.479 186.921 185.387  0.00  0.00     0.440 N 
HETATM    5  C   UNK     0     203.833 185.816 187.164  0.00  0.00     0.326 A 
HETATM    6  C   UNK     0     204.972 185.077 187.890  0.00  0.00    -0.009 A 
HETATM    7  C   UNK     0     203.426 185.649 188.640  0.00  0.00     0.031 A 
HETATM    8  C   UNK     0     202.504 186.539 186.879  0.00  0.00     0.424 A 
HETATM    9  C   UNK     0     203.794 186.434 184.750  0.00  0.00     0.663 A 
HETATM   10  C   UNK     0     205.332 184.552 189.293  0.00  0.00    -0.032 A 
HETATM   11  C   UNK     0     202.071 186.193 189.131  0.00  0.00     0.072 A 
HETATM   12  C   UNK     0     205.955 184.884 186.721  0.00  0.00     0.024 A 
HETATM   13  C   UNK     0     204.374 184.940 189.624  0.00  0.00    -0.027 A 
HETATM   14  C   UNK     0     201.665 186.026 190.607  0.00  0.00     0.051 A 
HETATM   15  C   UNK     0     206.674 183.835 189.526  0.00  0.00     0.025 A 
HETATM   16  C   UNK     0     207.298 184.167 186.954  0.00  0.00     0.005 A 
HETATM   17  C   UNK     0     203.968 184.773 191.100  0.00  0.00     0.026 A 
HETATM   18  C   UNK     0     202.614 185.316 191.591  0.00  0.00     0.011 A 
HETATM   19  C   UNK     0     207.658 183.643 188.356  0.00  0.00     0.005 A 
ENDROOT
TORSDOF 0
ENDMDL
MODEL 5
REMARK VINA RESULT:      -7.0     54.885     55.754
REMARK  0 active torsions:
REMARK  status: ('A' for Active; 'I' for Inactive)
ROOT
HETATM    1  O   UNK     0     205.962 185.394 185.243  0.00  0.00    -0.304 OA
HETATM    2  O   UNK     0     201.181 187.949 185.184  0.00  0.00    -0.152 OA
HETATM    3  N   UNK     0     202.636 186.596 187.077  0.00  0.00     0.418 N 
HETATM    4  N   UNK     0     203.629 186.769 184.799  0.00  0.00     0.440 N 
HETATM    5  C   UNK     0     203.994 185.870 187.095  0.00  0.00     0.326 A 
HETATM    6  C   UNK     0     203.789 185.523 188.580  0.00  0.00    -0.009 A 
HETATM    7  C   UNK     0     205.222 185.073 187.569  0.00  0.00     0.031 A 
HETATM    8  C   UNK     0     204.607 185.977 185.686  0.00  0.00     0.424 A 
HETATM    9  C   UNK     0     202.410 187.151 185.659  0.00  0.00     0.663 A 
HETATM   10  C   UNK     0     204.506 184.790 189.730  0.00  0.00    -0.032 A 
HETATM   11  C   UNK     0     206.368 184.766 186.587  0.00  0.00     0.072 A 
HETATM   12  C   UNK     0     202.417 186.177 188.822  0.00  0.00     0.024 A 
HETATM   13  C   UNK     0     205.305 184.582 189.026  0.00  0.00    -0.027 A 
HETATM   14  C   UNK     0     207.597 183.969 187.063  0.00  0.00     0.051 A 
HETATM   15  C   UNK     0     203.850 184.711 191.121  0.00  0.00     0.025 A 
HETATM   16  C   UNK     0     201.760 186.098 190.213  0.00  0.00     0.005 A 
HETATM   17  C   UNK     0     206.534 183.784 189.501  0.00  0.00     0.026 A 
HETATM   18  C   UNK     0     207.679 183.478 188.520  0.00  0.00     0.011 A 
HETATM   19  C   UNK     0     202.476 185.365 191.362  0.00  0.00     0.005 A 
ENDROOT
TORSDOF 0
ENDMDL
MODEL 6
REMARK VINA RESULT:      -7.0      1.660      2.078
REMARK  0 active torsions:
REMARK  status: ('A' for Active; 'I' for Inactive)
ROOT
HETATM    1  O   UNK     0     169.278 142.666 196.559  0.00  0.00    -0.304 OA
HETATM    2  O   UNK     0     171.972 137.962 196.580  0.00  0.00    -0.152 OA
HETATM    3  N   UNK     0     171.062 139.669 194.634  0.00  0.00     0.418 N 
HETATM    4  N   UNK     0     170.613 140.309 196.999  0.00  0.00     0.440 N 
HETATM    5  C   UNK     0     170.297 141.005 194.627  0.00  0.00     0.326 A 
HETATM    6  C   UNK     0     170.340 141.022 193.088  0.00  0.00    -0.009 A 
HETATM    7  C   UNK     0     169.582 142.281 194.146  0.00  0.00     0.031 A 
HETATM    8  C   UNK     0     170.019 141.400 196.089  0.00  0.00     0.424 A 
HETATM    9  C   UNK     0     171.257 139.239 196.099  0.00  0.00     0.663 A 
HETATM   10  C   UNK     0     169.881 141.895 191.905  0.00  0.00    -0.032 A 
HETATM   11  C   UNK     0     168.985 143.263 195.172  0.00  0.00     0.072 A 
HETATM   12  C   UNK     0     171.101 139.710 192.826  0.00  0.00     0.024 A 
HETATM   13  C   UNK     0     169.466 142.577 192.639  0.00  0.00    -0.027 A 
HETATM   14  C   UNK     0     168.270 144.539 194.690  0.00  0.00     0.051 A 
HETATM   15  C   UNK     0     170.184 141.455 190.461  0.00  0.00     0.025 A 
HETATM   16  C   UNK     0     171.404 139.270 191.382  0.00  0.00     0.005 A 
HETATM   17  C   UNK     0     168.751 143.853 192.158  0.00  0.00     0.026 A 
HETATM   18  C   UNK     0     168.154 144.834 193.183  0.00  0.00     0.011 A 
HETATM   19  C   UNK     0     170.945 140.142 190.199  0.00  0.00     0.005 A 
ENDROOT
TORSDOF 0
ENDMDL
MODEL 7
REMARK VINA RESULT:      -7.0     43.053     45.316
REMARK  0 active torsions:
REMARK  status: ('A' for Active; 'I' for Inactive)
ROOT
HETATM    1  O   UNK     0     123.619 144.272 185.311  0.00  0.00    -0.304 OA
HETATM    2  O   UNK     0     128.407 141.739 185.101  0.00  0.00    -0.152 OA
HETATM    3  N   UNK     0     126.983 143.040 187.053  0.00  0.00     0.418 N 
HETATM    4  N   UNK     0     125.948 142.918 184.790  0.00  0.00     0.440 N 
HETATM    5  C   UNK     0     125.624 143.760 187.113  0.00  0.00     0.326 A 
HETATM    6  C   UNK     0     125.855 144.072 188.603  0.00  0.00    -0.009 A 
HETATM    7  C   UNK     0     124.401 144.541 187.630  0.00  0.00     0.031 A 
HETATM    8  C   UNK     0     124.984 143.684 185.714  0.00  0.00     0.424 A 
HETATM    9  C   UNK     0     127.184 142.520 185.618  0.00  0.00     0.663 A 
HETATM   10  C   UNK     0     125.157 144.775 189.783  0.00  0.00    -0.032 A 
HETATM   11  C   UNK     0     123.236 144.866 186.677  0.00  0.00     0.072 A 
HETATM   12  C   UNK     0     127.234 143.418 188.803  0.00  0.00     0.024 A 
HETATM   13  C   UNK     0     124.344 144.996 189.100  0.00  0.00    -0.027 A 
HETATM   14  C   UNK     0     122.014 145.647 187.194  0.00  0.00     0.051 A 
HETATM   15  C   UNK     0     125.839 144.823 191.162  0.00  0.00     0.025 A 
HETATM   16  C   UNK     0     127.916 143.466 190.183  0.00  0.00     0.005 A 
HETATM   17  C   UNK     0     123.122 145.778 189.616  0.00  0.00     0.026 A 
HETATM   18  C   UNK     0     121.957 146.103 188.664  0.00  0.00     0.011 A 
HETATM   19  C   UNK     0     127.219 144.168 191.362  0.00  0.00     0.005 A 
ENDROOT
TORSDOF 0
ENDMDL
MODEL 8
REMARK VINA RESULT:      -6.5     19.019     20.204
REMARK  0 active torsions:
REMARK  status: ('A' for Active; 'I' for Inactive)
ROOT
HETATM    1  O   UNK     0     176.062 160.738 188.326  0.00  0.00    -0.304 OA
HETATM    2  O   UNK     0     180.774 162.188 186.072  0.00  0.00    -0.152 OA
HETATM    3  N   UNK     0     180.039 160.561 188.155  0.00  0.00     0.418 N 
HETATM    4  N   UNK     0     178.207 161.709 186.916  0.00  0.00     0.440 N 
HETATM    5  C   UNK     0     178.701 160.148 188.795  0.00  0.00     0.326 A 
HETATM    6  C   UNK     0     179.457 159.268 189.808  0.00  0.00    -0.009 A 
HETATM    7  C   UNK     0     177.661 159.485 189.717  0.00  0.00     0.031 A 
HETATM    8  C   UNK     0     177.569 160.858 188.030  0.00  0.00     0.424 A 
HETATM    9  C   UNK     0     179.734 161.525 186.994  0.00  0.00     0.663 A 
HETATM   10  C   UNK     0     179.175 158.329 190.995  0.00  0.00    -0.032 A 
HETATM   11  C   UNK     0     176.161 159.768 189.515  0.00  0.00     0.072 A 
HETATM   12  C   UNK     0     180.906 159.521 189.353  0.00  0.00     0.024 A 
HETATM   13  C   UNK     0     178.122 158.538 190.841  0.00  0.00    -0.027 A 
HETATM   14  C   UNK     0     175.122 159.103 190.438  0.00  0.00     0.051 A 
HETATM   15  C   UNK     0     180.343 157.643 191.728  0.00  0.00     0.025 A 
HETATM   16  C   UNK     0     182.074 158.835 190.086  0.00  0.00     0.005 A 
HETATM   17  C   UNK     0     177.082 157.874 191.763  0.00  0.00     0.026 A 
HETATM   18  C   UNK     0     175.583 158.157 191.561  0.00  0.00     0.011 A 
HETATM   19  C   UNK     0     181.792 157.896 191.273  0.00  0.00     0.005 A 
ENDROOT
TORSDOF 0
ENDMDL
MODEL 9
REMARK VINA RESULT:      -6.4     56.041     57.845
REMARK  0 active torsions:
REMARK  status: ('A' for Active; 'I' for Inactive)
ROOT
HETATM    1  O   UNK     0     179.519 180.822 147.162  0.00  0.00    -0.304 OA
HETATM    2  O   UNK     0     174.193 180.853 148.175  0.00  0.00    -0.152 OA
HETATM    3  N   UNK     0     176.444 180.284 149.638  0.00  0.00     0.418 N 
HETATM    4  N   UNK     0     176.780 180.961 147.264  0.00  0.00     0.440 N 
HETATM    5  C   UNK     0     177.956 180.275 149.351  0.00  0.00     0.326 A 
HETATM    6  C   UNK     0     178.229 179.832 150.800  0.00  0.00    -0.009 A 
HETATM    7  C   UNK     0     179.480 180.130 149.525  0.00  0.00     0.031 A 
HETATM    8  C   UNK     0     178.164 180.694 147.883  0.00  0.00     0.424 A 
HETATM    9  C   UNK     0     175.716 180.708 148.349  0.00  0.00     0.663 A 
HETATM   10  C   UNK     0     179.411 179.487 151.725  0.00  0.00    -0.032 A 
HETATM   11  C   UNK     0     180.421 180.420 148.341  0.00  0.00     0.072 A 
HETATM   12  C   UNK     0     176.787 179.763 151.335  0.00  0.00     0.024 A 
HETATM   13  C   UNK     0     180.061 179.695 150.882  0.00  0.00    -0.027 A 
HETATM   14  C   UNK     0     181.944 180.275 148.516  0.00  0.00     0.051 A 
HETATM   15  C   UNK     0     179.150 179.074 153.186  0.00  0.00     0.025 A 
HETATM   16  C   UNK     0     176.527 179.350 152.795  0.00  0.00     0.005 A 
HETATM   17  C   UNK     0     181.585 179.550 151.056  0.00  0.00     0.026 A 
HETATM   18  C   UNK     0     182.526 179.840 149.873  0.00  0.00     0.011 A 
HETATM   19  C   UNK     0     177.708 179.005 153.721  0.00  0.00     0.005 A 
ENDROOT
TORSDOF 0
ENDMDL
MODEL 10
REMARK VINA RESULT:      -6.4     44.335     46.756
REMARK  0 active torsions:
REMARK  status: ('A' for Active; 'I' for Inactive)
ROOT
HETATM    1  O   UNK     0     125.170 142.802 183.812  0.00  0.00    -0.304 OA
HETATM    2  O   UNK     0     120.132 144.801 183.909  0.00  0.00    -0.152 OA
HETATM    3  N   UNK     0     122.228 144.735 185.678  0.00  0.00     0.418 N 
HETATM    4  N   UNK     0     122.586 143.657 183.460  0.00  0.00     0.440 N 
HETATM    5  C   UNK     0     123.659 144.168 185.651  0.00  0.00     0.326 A 
HETATM    6  C   UNK     0     123.891 144.684 187.083  0.00  0.00    -0.009 A 
HETATM    7  C   UNK     0     125.092 143.787 186.067  0.00  0.00     0.031 A 
HETATM    8  C   UNK     0     123.880 143.501 184.280  0.00  0.00     0.424 A 
HETATM    9  C   UNK     0     121.565 144.420 184.325  0.00  0.00     0.663 A 
HETATM   10  C   UNK     0     124.989 144.715 188.162  0.00  0.00    -0.032 A 
HETATM   11  C   UNK     0     126.000 143.019 185.088  0.00  0.00     0.072 A 
HETATM   12  C   UNK     0     122.522 145.333 187.359  0.00  0.00     0.024 A 
HETATM   13  C   UNK     0     125.617 144.174 187.462  0.00  0.00    -0.027 A 
HETATM   14  C   UNK     0     127.433 142.639 185.505  0.00  0.00     0.051 A 
HETATM   15  C   UNK     0     124.718 145.394 189.517  0.00  0.00     0.025 A 
HETATM   16  C   UNK     0     122.251 146.012 188.714  0.00  0.00     0.005 A 
HETATM   17  C   UNK     0     127.050 143.793 187.878  0.00  0.00     0.026 A 
HETATM   18  C   UNK     0     127.958 143.026 186.900  0.00  0.00     0.011 A 
HETATM   19  C   UNK     0     123.348 146.043 189.793  0.00  0.00     0.005 A 
ENDROOT
TORSDOF 0
ENDMDL
