MODEL 1
REMARK VINA RESULT:      -5.6      0.000      0.000
REMARK  2 active torsions:
REMARK  status: ('A' for Active; 'I' for Inactive)
REMARK    1  A    between atoms: C_1  and  C_2 
REMARK    2  A    between atoms: C_1  and  C_5 
ROOT
HETATM    1  C   UNK     0     170.970 162.926 151.299  0.00  0.00     0.035 A 
HETATM    2  C   UNK     0     171.038 162.021 152.544  0.00  0.00     0.120 A 
HETATM    3  N   UNK     0     171.854 162.461 153.773  0.00  0.00    -0.296 NA
HETATM    4  C   UNK     0     171.718 164.272 151.285  0.00  0.00     0.004 A 
HETATM    5  C   UNK     0     172.534 164.713 152.515  0.00  0.00     0.024 A 
HETATM    6  C   UNK     0     172.602 163.808 153.759  0.00  0.00     0.120 A 
HETATM    7  C   UNK     0     173.281 166.058 152.500  0.00  0.00     0.002 C 
ENDROOT
BRANCH   1   8
HETATM    8  C   UNK     0     170.154 162.485 150.070  0.00  0.00     0.100 C 
BRANCH   8   9
HETATM    9  C   UNK     0     170.738 161.380 149.082  0.00  0.00     0.185 C 
HETATM   10  O   UNK     0     169.803 160.229 148.751  0.00  0.00    -0.647 OA
HETATM   11  O   UNK     0     172.143 161.491 148.518  0.00  0.00    -0.647 OA
ENDBRANCH   8   9
ENDBRANCH   1   8
TORSDOF 2
ENDMDL
MODEL 2
REMARK VINA RESULT:      -5.6     13.443     14.532
REMARK  2 active torsions:
REMARK  status: ('A' for Active; 'I' for Inactive)
REMARK    1  A    between atoms: C_1  and  C_2 
REMARK    2  A    between atoms: C_1  and  C_5 
ROOT
HETATM    1  C   UNK     0     158.561 166.586 151.267  0.00  0.00     0.035 A 
HETATM    2  C   UNK     0     158.554 167.527 152.487  0.00  0.00     0.120 A 
HETATM    3  N   UNK     0     157.775 167.137 153.756  0.00  0.00    -0.296 NA
HETATM    4  C   UNK     0     157.789 165.256 151.317  0.00  0.00     0.004 A 
HETATM    5  C   UNK     0     157.009 164.864 152.587  0.00  0.00     0.024 A 
HETATM    6  C   UNK     0     157.003 165.805 153.807  0.00  0.00     0.120 A 
HETATM    7  C   UNK     0     156.237 163.534 152.637  0.00  0.00     0.002 C 
ENDROOT
BRANCH   1   8
HETATM    8  C   UNK     0     159.340 166.977 149.998  0.00  0.00     0.100 C 
BRANCH   8   9
HETATM    9  C   UNK     0     158.808 168.158 149.069  0.00  0.00     0.185 C 
HETATM   10  O   UNK     0     159.765 169.321 148.866  0.00  0.00    -0.647 OA
HETATM   11  O   UNK     0     157.429 168.103 148.437  0.00  0.00    -0.647 OA
ENDBRANCH   8   9
ENDBRANCH   1   8
TORSDOF 2
ENDMDL
MODEL 3
REMARK VINA RESULT:      -5.4     45.181     46.533
REMARK  2 active torsions:
REMARK  status: ('A' for Active; 'I' for Inactive)
REMARK    1  A    between atoms: C_1  and  C_2 
REMARK    2  A    between atoms: C_1  and  C_5 
ROOT
HETATM    1  C   UNK     0     169.190 143.688 193.363  0.00  0.00     0.035 A 
HETATM    2  C   UNK     0     168.502 145.065 193.307  0.00  0.00     0.120 A 
HETATM    3  N   UNK     0     167.765 145.506 192.029  0.00  0.00    -0.296 NA
HETATM    4  C   UNK     0     169.140 142.752 192.142  0.00  0.00     0.004 A 
HETATM    5  C   UNK     0     168.403 143.193 190.863  0.00  0.00     0.024 A 
HETATM    6  C   UNK     0     167.715 144.570 190.807  0.00  0.00     0.120 A 
HETATM    7  C   UNK     0     168.353 142.257 189.642  0.00  0.00     0.002 C 
ENDROOT
BRANCH   1   8
HETATM    8  C   UNK     0     169.927 143.248 194.642  0.00  0.00     0.100 C 
BRANCH   8   9
HETATM    9  C   UNK     0     169.334 142.071 195.537  0.00  0.00     0.185 C 
HETATM   10  O   UNK     0     169.722 140.662 195.119  0.00  0.00    -0.647 OA
HETATM   11  O   UNK     0     168.439 142.362 196.729  0.00  0.00    -0.647 OA
ENDBRANCH   8   9
ENDBRANCH   1   8
TORSDOF 2
ENDMDL
MODEL 4
REMARK VINA RESULT:      -5.4     17.299     18.856
REMARK  2 active torsions:
REMARK  status: ('A' for Active; 'I' for Inactive)
REMARK    1  A    between atoms: C_1  and  C_2 
REMARK    2  A    between atoms: C_1  and  C_5 
ROOT
HETATM    1  C   UNK     0     166.786 149.823 163.559  0.00  0.00     0.035 A 
HETATM    2  C   UNK     0     166.670 150.910 162.474  0.00  0.00     0.120 A 
HETATM    3  N   UNK     0     167.770 151.053 161.406  0.00  0.00    -0.296 NA
HETATM    4  C   UNK     0     168.003 148.879 163.575  0.00  0.00     0.004 A 
HETATM    5  C   UNK     0     169.103 149.022 162.508  0.00  0.00     0.024 A 
HETATM    6  C   UNK     0     168.987 150.109 161.422  0.00  0.00     0.120 A 
HETATM    7  C   UNK     0     170.319 148.079 162.524  0.00  0.00     0.002 C 
ENDROOT
BRANCH   1   8
HETATM    8  C   UNK     0     165.686 149.680 164.627  0.00  0.00     0.100 C 
BRANCH   8   9
HETATM    9  C   UNK     0     165.392 150.881 165.632  0.00  0.00     0.185 C 
HETATM   10  O   UNK     0     166.535 151.859 165.845  0.00  0.00    -0.647 OA
HETATM   11  O   UNK     0     164.047 151.019 166.322  0.00  0.00    -0.647 OA
ENDBRANCH   8   9
ENDBRANCH   1   8
TORSDOF 2
ENDMDL
MODEL 5
REMARK VINA RESULT:      -5.4     44.483     45.648
REMARK  2 active torsions:
REMARK  status: ('A' for Active; 'I' for Inactive)
REMARK    1  A    between atoms: C_1  and  C_2 
REMARK    2  A    between atoms: C_1  and  C_5 
ROOT
HETATM    1  C   UNK     0     168.532 144.191 191.949  0.00  0.00     0.035 A 
HETATM    2  C   UNK     0     167.724 144.147 190.638  0.00  0.00     0.120 A 
HETATM    3  N   UNK     0     167.942 142.999 189.636  0.00  0.00    -0.296 NA
HETATM    4  C   UNK     0     169.558 143.086 192.257  0.00  0.00     0.004 A 
HETATM    5  C   UNK     0     169.778 141.937 191.256  0.00  0.00     0.024 A 
HETATM    6  C   UNK     0     168.970 141.893 189.945  0.00  0.00     0.120 A 
HETATM    7  C   UNK     0     170.804 140.832 191.564  0.00  0.00     0.002 C 
ENDROOT
BRANCH   1   8
HETATM    8  C   UNK     0     168.312 145.340 192.950  0.00  0.00     0.100 C 
BRANCH   8   9
HETATM    9  C   UNK     0     167.766 145.027 194.414  0.00  0.00     0.185 C 
HETATM   10  O   UNK     0     166.610 145.893 194.887  0.00  0.00    -0.647 OA
HETATM   11  O   UNK     0     168.377 143.929 195.265  0.00  0.00    -0.647 OA
ENDBRANCH   8   9
ENDBRANCH   1   8
TORSDOF 2
ENDMDL
MODEL 6
REMARK VINA RESULT:      -5.3      1.542      2.281
REMARK  2 active torsions:
REMARK  status: ('A' for Active; 'I' for Inactive)
REMARK    1  A    between atoms: C_1  and  C_2 
REMARK    2  A    between atoms: C_1  and  C_5 
ROOT
HETATM    1  C   UNK     0     170.844 163.280 150.648  0.00  0.00     0.035 A 
HETATM    2  C   UNK     0     171.989 164.287 150.426  0.00  0.00     0.120 A 
HETATM    3  N   UNK     0     172.744 164.874 151.632  0.00  0.00    -0.296 NA
HETATM    4  C   UNK     0     170.455 162.862 152.078  0.00  0.00     0.004 A 
HETATM    5  C   UNK     0     171.209 163.450 153.285  0.00  0.00     0.024 A 
HETATM    6  C   UNK     0     172.354 164.456 153.062  0.00  0.00     0.120 A 
HETATM    7  C   UNK     0     170.820 163.031 154.714  0.00  0.00     0.002 C 
ENDROOT
BRANCH   1   8
HETATM    8  C   UNK     0     170.090 162.693 149.441  0.00  0.00     0.100 C 
BRANCH   8   9
HETATM    9  C   UNK     0     170.386 161.201 148.966  0.00  0.00     0.185 C 
HETATM   10  O   UNK     0     169.684 160.761 147.692  0.00  0.00    -0.647 OA
HETATM   11  O   UNK     0     171.314 160.293 149.753  0.00  0.00    -0.647 OA
ENDBRANCH   8   9
ENDBRANCH   1   8
TORSDOF 2
ENDMDL
MODEL 7
REMARK VINA RESULT:      -5.3     45.960     46.606
REMARK  2 active torsions:
REMARK  status: ('A' for Active; 'I' for Inactive)
REMARK    1  A    between atoms: C_1  and  C_2 
REMARK    2  A    between atoms: C_1  and  C_5 
ROOT
HETATM    1  C   UNK     0     127.902 152.921 162.420  0.00  0.00     0.035 A 
HETATM    2  C   UNK     0     127.996 152.866 160.883  0.00  0.00     0.120 A 
HETATM    3  N   UNK     0     127.651 154.111 160.045  0.00  0.00    -0.296 NA
HETATM    4  C   UNK     0     127.462 154.221 163.117  0.00  0.00     0.004 A 
HETATM    5  C   UNK     0     127.116 155.466 162.280  0.00  0.00     0.024 A 
HETATM    6  C   UNK     0     127.210 155.411 160.743  0.00  0.00     0.120 A 
HETATM    7  C   UNK     0     126.676 156.766 162.977  0.00  0.00     0.002 C 
ENDROOT
BRANCH   1   8
HETATM    8  C   UNK     0     128.248 151.676 163.257  0.00  0.00     0.100 C 
BRANCH   8   9
HETATM    9  C   UNK     0     127.447 150.317 163.031  0.00  0.00     0.185 C 
HETATM   10  O   UNK     0     127.949 149.435 161.900  0.00  0.00    -0.647 OA
HETATM   11  O   UNK     0     126.261 149.947 163.903  0.00  0.00    -0.647 OA
ENDBRANCH   8   9
ENDBRANCH   1   8
TORSDOF 2
ENDMDL
MODEL 8
REMARK VINA RESULT:      -5.2     17.718     18.707
REMARK  2 active torsions:
REMARK  status: ('A' for Active; 'I' for Inactive)
REMARK    1  A    between atoms: C_1  and  C_2 
REMARK    2  A    between atoms: C_1  and  C_5 
ROOT
HETATM    1  C   UNK     0     166.495 149.642 163.307  0.00  0.00     0.035 A 
HETATM    2  C   UNK     0     165.302 148.753 163.707  0.00  0.00     0.120 A 
HETATM    3  N   UNK     0     164.378 149.177 164.863  0.00  0.00    -0.296 NA
HETATM    4  C   UNK     0     166.762 150.956 164.064  0.00  0.00     0.004 A 
HETATM    5  C   UNK     0     165.838 151.381 165.221  0.00  0.00     0.024 A 
HETATM    6  C   UNK     0     164.646 150.492 165.620  0.00  0.00     0.120 A 
HETATM    7  C   UNK     0     166.106 152.695 165.977  0.00  0.00     0.002 C 
ENDROOT
BRANCH   1   8
HETATM    8  C   UNK     0     167.418 149.217 162.151  0.00  0.00     0.100 C 
BRANCH   8   9
HETATM    9  C   UNK     0     168.980 149.527 162.224  0.00  0.00     0.185 C 
HETATM   10  O   UNK     0     169.403 150.906 161.746  0.00  0.00    -0.647 OA
HETATM   11  O   UNK     0     169.964 148.494 162.742  0.00  0.00    -0.647 OA
ENDBRANCH   8   9
ENDBRANCH   1   8
TORSDOF 2
ENDMDL
MODEL 9
REMARK VINA RESULT:      -5.2     32.571     34.339
REMARK  2 active torsions:
REMARK  status: ('A' for Active; 'I' for Inactive)
REMARK    1  A    between atoms: C_1  and  C_2 
REMARK    2  A    between atoms: C_1  and  C_5 
ROOT
HETATM    1  C   UNK     0     185.966 159.015 182.001  0.00  0.00     0.035 A 
HETATM    2  C   UNK     0     185.489 160.470 182.175  0.00  0.00     0.120 A 
HETATM    3  N   UNK     0     184.092 160.887 181.680  0.00  0.00    -0.296 NA
HETATM    4  C   UNK     0     185.045 157.979 181.332  0.00  0.00     0.004 A 
HETATM    5  C   UNK     0     183.648 158.395 180.836  0.00  0.00     0.024 A 
HETATM    6  C   UNK     0     183.171 159.850 181.010  0.00  0.00     0.120 A 
HETATM    7  C   UNK     0     182.728 157.359 180.166  0.00  0.00     0.002 C 
ENDROOT
BRANCH   1   8
HETATM    8  C   UNK     0     187.363 158.598 182.497  0.00  0.00     0.100 C 
BRANCH   8   9
HETATM    9  C   UNK     0     187.547 157.240 183.310  0.00  0.00     0.185 C 
HETATM   10  O   UNK     0     187.444 155.963 182.493  0.00  0.00    -0.647 OA
HETATM   11  O   UNK     0     187.808 157.246 184.805  0.00  0.00    -0.647 OA
ENDBRANCH   8   9
ENDBRANCH   1   8
TORSDOF 2
ENDMDL
MODEL 10
REMARK VINA RESULT:      -5.2     21.335     22.024
REMARK  2 active torsions:
REMARK  status: ('A' for Active; 'I' for Inactive)
REMARK    1  A    between atoms: C_1  and  C_2 
REMARK    2  A    between atoms: C_1  and  C_5 
ROOT
HETATM    1  C   UNK     0     163.235 179.737 162.921  0.00  0.00     0.035 A 
HETATM    2  C   UNK     0     164.290 180.750 163.405  0.00  0.00     0.120 A 
HETATM    3  N   UNK     0     165.038 180.510 164.729  0.00  0.00    -0.296 NA
HETATM    4  C   UNK     0     162.929 178.484 163.761  0.00  0.00     0.004 A 
HETATM    5  C   UNK     0     163.677 178.243 165.086  0.00  0.00     0.024 A 
HETATM    6  C   UNK     0     164.732 179.256 165.570  0.00  0.00     0.120 A 
HETATM    7  C   UNK     0     163.371 176.991 165.927  0.00  0.00     0.002 C 
ENDROOT
BRANCH   1   8
HETATM    8  C   UNK     0     162.488 179.978 161.596  0.00  0.00     0.100 C 
BRANCH   8   9
HETATM    9  C   UNK     0     161.430 178.907 161.073  0.00  0.00     0.185 C 
HETATM   10  O   UNK     0     161.824 178.147 159.818  0.00  0.00    -0.647 OA
HETATM   11  O   UNK     0     160.116 178.678 161.799  0.00  0.00    -0.647 OA
ENDBRANCH   8   9
ENDBRANCH   1   8
TORSDOF 2
ENDMDL
