MODEL 1
REMARK VINA RESULT:     -10.4      0.000      0.000
REMARK  3 active torsions:
REMARK  status: ('A' for Active; 'I' for Inactive)
REMARK    1  A    between atoms: C_16  and  C_21 
REMARK    2  A    between atoms: C_24  and  O_62 
REMARK    3  A    between atoms: C_34  and  O_35 
ROOT
HETATM    1  C   UNK     0     194.070 153.603 166.532  0.00  0.00     0.018 A 
HETATM    2  C   UNK     0     194.858 154.535 167.471  0.00  0.00     0.166 A 
HETATM    3  C   UNK     0     192.644 153.158 166.908  0.00  0.00     0.004 A 
HETATM    4  N   UNK     0     194.220 155.022 168.785  0.00  0.00    -0.347 N 
HETATM    5  C   UNK     0     192.007 153.646 168.222  0.00  0.00     0.024 A 
HETATM    6  C   UNK     0     192.795 154.578 169.160  0.00  0.00     0.099 A 
HETATM    7  C   UNK     0     196.284 154.979 167.095  0.00  0.00     0.281 C 
HETATM    8  O   UNK     0     197.072 155.911 168.034  0.00  0.00    -0.189 OA
HETATM    9  O   UNK     0     196.435 156.399 169.349  0.00  0.00    -0.196 OA
HETATM   10  C   UNK     0     195.009 155.954 169.724  0.00  0.00     0.265 A 
HETATM   11  C   UNK     0     194.372 156.442 171.039  0.00  0.00     0.231 A 
HETATM   12  O   UNK     0     192.946 155.998 171.415  0.00  0.00    -0.216 OA
HETATM   13  C   UNK     0     198.348 154.936 165.405  0.00  0.00     0.175 A 
HETATM   14  C   UNK     0     199.136 155.868 166.344  0.00  0.00     0.075 A 
HETATM   15  O   UNK     0     196.922 154.492 165.781  0.00  0.00    -0.336 OA
HETATM   16  C   UNK     0     200.411 154.893 163.715  0.00  0.00     0.065 A 
HETATM   17  O   UNK     0     201.199 155.825 164.654  0.00  0.00    -0.317 OA
HETATM   18  C   UNK     0     198.985 154.449 164.091  0.00  0.00    -0.008 A 
HETATM   19  C   UNK     0     200.562 156.313 165.969  0.00  0.00     0.072 A 
HETATM   20  C   UNK     0     198.197 153.517 163.151  0.00  0.00     0.030 C 
HETATM   21  O   UNK     0     196.586 157.819 171.603  0.00  0.00    -0.365 OA
HETATM   22  C   UNK     0     195.160 157.373 171.977  0.00  0.00     0.149 A 
HETATM   23  C   UNK     0     197.374 158.750 172.541  0.00  0.00     0.151 A 
HETATM   24  C   UNK     0     196.737 159.237 173.855  0.00  0.00     0.021 A 
HETATM   25  C   UNK     0     194.522 157.861 173.292  0.00  0.00     0.030 A 
HETATM   26  C   UNK     0     195.311 158.793 174.231  0.00  0.00     0.004 A 
HETATM   27  C   UNK     0     198.800 159.194 172.165  0.00  0.00     0.071 C 
HETATM   28  C   UNK     0     199.589 160.127 173.105  0.00  0.00     0.066 C 
HETATM   29  C   UNK     0     201.653 160.084 171.415  0.00  0.00     0.028 C 
HETATM   30  C   UNK     0     201.015 160.572 172.729  0.00  0.00    -0.025 C 
HETATM   31  C   UNK     0     201.803 161.503 173.668  0.00  0.00     0.028 C 
HETATM   32  C   UNK     0     193.097 157.416 173.667  0.00  0.00     0.003 C 
HETATM   33  C   UNK     0     201.350 157.245 166.908  0.00  0.00    -0.021 C 
HETATM   34  C   UNK     0     200.714 157.733 168.222  0.00  0.00     0.028 C 
HETATM   35  C   UNK     0     202.777 157.690 166.532  0.00  0.00     0.048 C 
HETATM   36  C   UNK     0     203.565 158.622 167.471  0.00  0.00    -0.012 C 
HETATM   37  C   UNK     0     202.927 159.109 168.786  0.00  0.00     0.029 C 
HETATM   38  C   UNK     0     204.991 159.066 167.096  0.00  0.00     0.148 C 
HETATM   39  C   UNK     0     205.779 159.998 168.035  0.00  0.00     0.144 A 
HETATM   40  O   UNK     0     205.142 160.486 169.349  0.00  0.00    -0.322 OA
HETATM   41  O   UNK     0     205.629 158.579 165.781  0.00  0.00    -0.189 OA
HETATM   42  C   UNK     0     207.205 160.443 167.659  0.00  0.00     0.151 A 
HETATM   43  C   UNK     0     203.239 161.971 173.323  0.00  0.00     0.030 C 
HETATM   44  C   UNK     0     204.155 163.053 174.413  0.00  0.00    -0.026 C 
HETATM   45  C   UNK     0     207.994 161.375 168.598  0.00  0.00     0.004 A 
HETATM   46  C   UNK     0     207.307 161.845 169.923  0.00  0.00     0.002 A 
HETATM   47  C   UNK     0     205.930 161.418 170.288  0.00  0.00     0.175 A 
HETATM   48  O   UNK     0     207.842 159.955 166.345  0.00  0.00    -0.188 OA
HETATM   49  C   UNK     0     205.461 163.451 174.053  0.00  0.00    -0.005 C 
HETATM   50  C   UNK     0     206.020 162.870 172.644  0.00  0.00    -0.005 C 
HETATM   51  C   UNK     0     207.333 162.842 171.569  0.00  0.00    -0.024 C 
HETATM   52  C   UNK     0     209.400 161.788 168.186  0.00  0.00     0.033 C 
HETATM   53  O   UNK     0     195.727 156.890 170.725  0.00  0.00     0.000 OA
HETATM   54  C   UNK     0     208.597 163.649 171.925  0.00  0.00     0.031 C 
ENDROOT
BRANCH  16  55
HETATM   55  C   UNK     0     201.049 154.406 162.401  0.00  0.00     0.072 A 
HETATM   56  C   UNK     0     201.866 153.101 162.379  0.00  0.00     0.007 A 
HETATM   57  C   UNK     0     202.504 152.613 161.064  0.00  0.00     0.056 A 
HETATM   58  C   UNK     0     202.324 153.431 159.771  0.00  0.00     0.127 A 
HETATM   59  C   UNK     0     201.507 154.736 159.793  0.00  0.00     0.093 A 
HETATM   60  O   UNK     0     202.962 152.943 158.458  0.00  0.00    -0.193 OA
HETATM   61  C   UNK     0     200.869 155.224 161.108  0.00  0.00     0.053 A 
BRANCH  59  62
HETATM   62  O   UNK     0     201.327 155.554 158.501  0.00  0.00    -0.331 OA
HETATM   63  C   UNK     0     200.483 156.842 158.516  0.00  0.00     0.181 C 
ENDBRANCH  59  62
ENDBRANCH  16  55
BRANCH  28  64
HETATM   64  O   UNK     0     198.951 160.614 174.419  0.00  0.00    -0.333 OA
HETATM   65  C   UNK     0     198.425 162.056 174.531  0.00  0.00     0.181 C 
ENDBRANCH  28  64
TORSDOF 3
ENDMDL
MODEL 2
REMARK VINA RESULT:     -10.3     30.601     35.330
REMARK  3 active torsions:
REMARK  status: ('A' for Active; 'I' for Inactive)
REMARK    1  A    between atoms: C_16  and  C_21 
REMARK    2  A    between atoms: C_24  and  O_62 
REMARK    3  A    between atoms: C_34  and  O_35 
ROOT
HETATM    1  C   UNK     0     201.425 187.695 169.760  0.00  0.00     0.018 A 
HETATM    2  C   UNK     0     199.947 188.126 169.768  0.00  0.00     0.166 A 
HETATM    3  C   UNK     0     202.109 187.311 168.435  0.00  0.00     0.004 A 
HETATM    4  N   UNK     0     199.152 188.171 168.449  0.00  0.00    -0.347 N 
HETATM    5  C   UNK     0     201.314 187.356 167.117  0.00  0.00     0.024 A 
HETATM    6  C   UNK     0     199.835 187.787 167.125  0.00  0.00     0.099 A 
HETATM    7  C   UNK     0     199.263 188.510 171.093  0.00  0.00     0.281 C 
HETATM    8  O   UNK     0     197.785 188.940 171.100  0.00  0.00    -0.189 OA
HETATM    9  O   UNK     0     196.988 188.986 169.782  0.00  0.00    -0.196 OA
HETATM   10  C   UNK     0     197.673 188.601 168.457  0.00  0.00     0.265 A 
HETATM   11  C   UNK     0     196.877 188.647 167.139  0.00  0.00     0.231 A 
HETATM   12  O   UNK     0     197.560 188.262 165.813  0.00  0.00    -0.216 OA
HETATM   13  C   UNK     0     199.375 188.850 173.737  0.00  0.00     0.175 A 
HETATM   14  C   UNK     0     197.896 189.280 173.744  0.00  0.00     0.075 A 
HETATM   15  O   UNK     0     200.058 188.465 172.412  0.00  0.00    -0.336 OA
HETATM   16  C   UNK     0     199.486 189.189 176.380  0.00  0.00     0.065 A 
HETATM   17  O   UNK     0     198.008 189.619 176.387  0.00  0.00    -0.317 OA
HETATM   18  C   UNK     0     200.170 188.804 175.055  0.00  0.00    -0.008 A 
HETATM   19  C   UNK     0     197.212 189.665 175.069  0.00  0.00     0.072 A 
HETATM   20  C   UNK     0     201.649 188.374 175.048  0.00  0.00     0.030 C 
HETATM   21  O   UNK     0     194.715 189.462 168.471  0.00  0.00    -0.365 OA
HETATM   22  C   UNK     0     195.399 189.077 167.146  0.00  0.00     0.149 A 
HETATM   23  C   UNK     0     193.237 189.892 168.478  0.00  0.00     0.151 A 
HETATM   24  C   UNK     0     192.442 189.937 167.161  0.00  0.00     0.021 A 
HETATM   25  C   UNK     0     194.604 189.122 165.828  0.00  0.00     0.030 A 
HETATM   26  C   UNK     0     193.125 189.553 165.835  0.00  0.00     0.004 A 
HETATM   27  C   UNK     0     192.553 190.276 169.804  0.00  0.00     0.071 C 
HETATM   28  C   UNK     0     191.074 190.707 169.811  0.00  0.00     0.066 C 
HETATM   29  C   UNK     0     191.185 191.046 172.455  0.00  0.00     0.028 C 
HETATM   30  C   UNK     0     190.390 191.092 171.136  0.00  0.00    -0.025 C 
HETATM   31  C   UNK     0     188.911 191.522 171.144  0.00  0.00     0.028 C 
HETATM   32  C   UNK     0     195.288 188.738 164.503  0.00  0.00     0.003 C 
HETATM   33  C   UNK     0     195.733 190.095 175.076  0.00  0.00    -0.021 C 
HETATM   34  C   UNK     0     194.938 190.140 173.759  0.00  0.00     0.028 C 
HETATM   35  C   UNK     0     195.049 190.479 176.402  0.00  0.00     0.048 C 
HETATM   36  C   UNK     0     193.571 190.910 176.409  0.00  0.00    -0.012 C 
HETATM   37  C   UNK     0     192.775 190.955 175.091  0.00  0.00     0.029 C 
HETATM   38  C   UNK     0     192.887 191.294 177.735  0.00  0.00     0.148 C 
HETATM   39  C   UNK     0     191.408 191.724 177.742  0.00  0.00     0.144 A 
HETATM   40  O   UNK     0     190.613 191.770 176.423  0.00  0.00    -0.322 OA
HETATM   41  O   UNK     0     193.682 191.249 179.053  0.00  0.00    -0.189 OA
HETATM   42  C   UNK     0     190.725 192.109 179.067  0.00  0.00     0.151 A 
HETATM   43  C   UNK     0     188.192 191.915 172.457  0.00  0.00     0.030 C 
HETATM   44  C   UNK     0     186.474 192.415 172.466  0.00  0.00    -0.026 C 
HETATM   45  C   UNK     0     189.246 192.539 179.075  0.00  0.00     0.004 A 
HETATM   46  C   UNK     0     188.477 192.571 177.712  0.00  0.00     0.002 A 
HETATM   47  C   UNK     0     189.135 192.200 176.431  0.00  0.00     0.175 A 
HETATM   48  O   UNK     0     191.520 192.063 180.385  0.00  0.00    -0.188 OA
HETATM   49  C   UNK     0     185.863 192.764 173.690  0.00  0.00    -0.005 C 
HETATM   50  C   UNK     0     186.807 192.676 175.009  0.00  0.00    -0.005 C 
HETATM   51  C   UNK     0     186.878 192.891 176.690  0.00  0.00    -0.024 C 
HETATM   52  C   UNK     0     188.612 192.911 180.408  0.00  0.00     0.033 C 
HETATM   53  O   UNK     0     196.187 189.021 168.371  0.00  0.00     0.000 OA
HETATM   54  C   UNK     0     185.611 193.363 177.429  0.00  0.00     0.031 C 
ENDROOT
BRANCH  16  55
HETATM   55  C   UNK     0     200.281 189.143 177.699  0.00  0.00     0.072 A 
HETATM   56  C   UNK     0     200.260 187.872 178.567  0.00  0.00     0.007 A 
HETATM   57  C   UNK     0     201.055 187.826 179.886  0.00  0.00     0.056 A 
HETATM   58  C   UNK     0     201.872 189.052 180.335  0.00  0.00     0.127 A 
HETATM   59  C   UNK     0     201.894 190.324 179.467  0.00  0.00     0.093 A 
HETATM   60  O   UNK     0     202.666 189.006 181.653  0.00  0.00    -0.193 OA
HETATM   61  C   UNK     0     201.098 190.369 178.148  0.00  0.00     0.053 A 
BRANCH  59  62
HETATM   62  O   UNK     0     202.710 191.549 179.916  0.00  0.00    -0.331 OA
HETATM   63  C   UNK     0     202.148 192.496 180.992  0.00  0.00     0.181 C 
ENDBRANCH  59  62
ENDBRANCH  16  55
BRANCH  28  64
HETATM   64  O   UNK     0     190.279 190.752 168.492  0.00  0.00    -0.333 OA
HETATM   65  C   UNK     0     189.178 189.712 168.222  0.00  0.00     0.181 C 
ENDBRANCH  28  64
TORSDOF 3
ENDMDL
MODEL 3
REMARK VINA RESULT:     -10.3     65.807     73.221
REMARK  3 active torsions:
REMARK  status: ('A' for Active; 'I' for Inactive)
REMARK    1  A    between atoms: C_16  and  C_21 
REMARK    2  A    between atoms: C_24  and  O_62 
REMARK    3  A    between atoms: C_34  and  O_35 
ROOT
HETATM    1  C   UNK     0     135.372 176.187 166.092  0.00  0.00     0.018 A 
HETATM    2  C   UNK     0     134.647 175.258 167.084  0.00  0.00     0.166 A 
HETATM    3  C   UNK     0     136.800 176.676 166.398  0.00  0.00     0.004 A 
HETATM    4  N   UNK     0     135.351 174.817 168.381  0.00  0.00    -0.347 N 
HETATM    5  C   UNK     0     137.503 176.235 167.695  0.00  0.00     0.024 A 
HETATM    6  C   UNK     0     136.779 175.305 168.686  0.00  0.00     0.099 A 
HETATM    7  C   UNK     0     133.219 174.769 166.778  0.00  0.00     0.281 C 
HETATM    8  O   UNK     0     132.494 173.840 167.769  0.00  0.00    -0.189 OA
HETATM    9  O   UNK     0     133.197 173.398 169.067  0.00  0.00    -0.196 OA
HETATM   10  C   UNK     0     134.625 173.887 169.371  0.00  0.00     0.265 A 
HETATM   11  C   UNK     0     135.329 173.446 170.669  0.00  0.00     0.231 A 
HETATM   12  O   UNK     0     136.757 173.934 170.975  0.00  0.00    -0.216 OA
HETATM   13  C   UNK     0     131.087 174.722 165.175  0.00  0.00     0.175 A 
HETATM   14  C   UNK     0     130.362 173.792 166.166  0.00  0.00     0.075 A 
HETATM   15  O   UNK     0     132.515 175.210 165.480  0.00  0.00    -0.336 OA
HETATM   16  C   UNK     0     128.955 174.674 163.572  0.00  0.00     0.065 A 
HETATM   17  O   UNK     0     128.231 173.745 164.563  0.00  0.00    -0.317 OA
HETATM   18  C   UNK     0     130.384 175.163 163.878  0.00  0.00    -0.008 A 
HETATM   19  C   UNK     0     128.934 173.303 165.861  0.00  0.00     0.072 A 
HETATM   20  C   UNK     0     131.107 176.092 162.886  0.00  0.00     0.030 C 
HETATM   21  O   UNK     0     133.177 172.028 171.355  0.00  0.00    -0.365 OA
HETATM   22  C   UNK     0     134.605 172.517 171.660  0.00  0.00     0.149 A 
HETATM   23  C   UNK     0     132.452 171.099 172.346  0.00  0.00     0.151 A 
HETATM   24  C   UNK     0     133.155 170.658 173.643  0.00  0.00     0.021 A 
HETATM   25  C   UNK     0     135.308 172.076 172.957  0.00  0.00     0.030 A 
HETATM   26  C   UNK     0     134.584 171.147 173.948  0.00  0.00     0.004 A 
HETATM   27  C   UNK     0     131.024 170.611 172.040  0.00  0.00     0.071 C 
HETATM   28  C   UNK     0     130.299 169.681 173.032  0.00  0.00     0.066 C 
HETATM   29  C   UNK     0     128.167 169.633 171.429  0.00  0.00     0.028 C 
HETATM   30  C   UNK     0     128.871 169.192 172.726  0.00  0.00    -0.025 C 
HETATM   31  C   UNK     0     128.146 168.263 173.717  0.00  0.00     0.028 C 
HETATM   32  C   UNK     0     136.736 172.564 173.262  0.00  0.00     0.003 C 
HETATM   33  C   UNK     0     128.209 172.374 166.853  0.00  0.00    -0.021 C 
HETATM   34  C   UNK     0     128.912 171.933 168.149  0.00  0.00     0.028 C 
HETATM   35  C   UNK     0     126.781 171.886 166.547  0.00  0.00     0.048 C 
HETATM   36  C   UNK     0     126.056 170.956 167.538  0.00  0.00    -0.012 C 
HETATM   37  C   UNK     0     126.760 170.515 168.835  0.00  0.00     0.029 C 
HETATM   38  C   UNK     0     124.628 170.468 167.232  0.00  0.00     0.148 C 
HETATM   39  C   UNK     0     123.903 169.538 168.223  0.00  0.00     0.144 A 
HETATM   40  O   UNK     0     124.607 169.097 169.521  0.00  0.00    -0.322 OA
HETATM   41  O   UNK     0     123.924 170.909 165.935  0.00  0.00    -0.189 OA
HETATM   42  C   UNK     0     122.475 169.050 167.918  0.00  0.00     0.151 A 
HETATM   43  C   UNK     0     126.710 167.752 173.443  0.00  0.00     0.030 C 
HETATM   44  C   UNK     0     125.868 166.673 174.594  0.00  0.00    -0.026 C 
HETATM   45  C   UNK     0     121.750 168.120 168.909  0.00  0.00     0.004 A 
HETATM   46  C   UNK     0     122.503 167.698 170.214  0.00  0.00     0.002 A 
HETATM   47  C   UNK     0     123.882 168.168 170.512  0.00  0.00     0.175 A 
HETATM   48  O   UNK     0     121.772 169.491 166.621  0.00  0.00    -0.188 OA
HETATM   49  C   UNK     0     124.559 166.234 174.298  0.00  0.00    -0.005 C 
HETATM   50  C   UNK     0     123.927 166.769 172.901  0.00  0.00    -0.005 C 
HETATM   51  C   UNK     0     122.571 166.738 171.881  0.00  0.00    -0.024 C 
HETATM   52  C   UNK     0     120.339 167.663 168.565  0.00  0.00     0.033 C 
HETATM   53  O   UNK     0     133.974 172.957 170.422  0.00  0.00     0.000 OA
HETATM   54  C   UNK     0     121.344 165.909 172.307  0.00  0.00     0.031 C 
ENDROOT
BRANCH  16  55
HETATM   55  C   UNK     0     128.251 175.115 162.275  0.00  0.00     0.072 A 
HETATM   56  C   UNK     0     127.392 176.393 162.262  0.00  0.00     0.007 A 
HETATM   57  C   UNK     0     126.688 176.834 160.964  0.00  0.00     0.056 A 
HETATM   58  C   UNK     0     126.844 175.997 159.680  0.00  0.00     0.127 A 
HETATM   59  C   UNK     0     127.704 174.720 159.694  0.00  0.00     0.093 A 
HETATM   60  O   UNK     0     126.140 176.438 158.384  0.00  0.00    -0.193 OA
HETATM   61  C   UNK     0     128.408 174.279 160.991  0.00  0.00     0.053 A 
BRANCH  59  62
HETATM   62  O   UNK     0     127.860 173.883 158.411  0.00  0.00    -0.331 OA
HETATM   63  C   UNK     0     128.861 172.713 158.372  0.00  0.00     0.181 C 
ENDBRANCH  59  62
ENDBRANCH  16  55
BRANCH  28  64
HETATM   64  O   UNK     0     131.003 169.240 174.329  0.00  0.00    -0.333 OA
HETATM   65  C   UNK     0     131.486 167.787 174.487  0.00  0.00     0.181 C 
ENDBRANCH  28  64
TORSDOF 3
ENDMDL
MODEL 4
REMARK VINA RESULT:     -10.0     38.720     43.314
REMARK  3 active torsions:
REMARK  status: ('A' for Active; 'I' for Inactive)
REMARK    1  A    between atoms: C_16  and  C_21 
REMARK    2  A    between atoms: C_24  and  O_62 
REMARK    3  A    between atoms: C_34  and  O_35 
ROOT
HETATM    1  C   UNK     0     162.622 178.971 158.699  0.00  0.00     0.018 A 
HETATM    2  C   UNK     0     163.848 178.424 157.946  0.00  0.00     0.166 A 
HETATM    3  C   UNK     0     162.743 179.366 160.183  0.00  0.00     0.004 A 
HETATM    4  N   UNK     0     165.196 178.272 158.676  0.00  0.00    -0.347 N 
HETATM    5  C   UNK     0     164.090 179.214 160.912  0.00  0.00     0.024 A 
HETATM    6  C   UNK     0     165.317 178.667 160.159  0.00  0.00     0.099 A 
HETATM    7  C   UNK     0     163.727 178.029 156.462  0.00  0.00     0.281 C 
HETATM    8  O   UNK     0     164.953 177.481 155.708  0.00  0.00    -0.189 OA
HETATM    9  O   UNK     0     166.302 177.329 156.438  0.00  0.00    -0.196 OA
HETATM   10  C   UNK     0     166.422 177.724 157.921  0.00  0.00     0.265 A 
HETATM   11  C   UNK     0     167.770 177.572 158.651  0.00  0.00     0.231 A 
HETATM   12  O   UNK     0     167.892 177.967 160.135  0.00  0.00    -0.216 OA
HETATM   13  C   UNK     0     162.258 177.786 154.248  0.00  0.00     0.175 A 
HETATM   14  C   UNK     0     163.484 177.238 153.494  0.00  0.00     0.075 A 
HETATM   15  O   UNK     0     162.379 178.181 155.732  0.00  0.00    -0.336 OA
HETATM   16  C   UNK     0     160.789 177.543 152.035  0.00  0.00     0.065 A 
HETATM   17  O   UNK     0     162.016 176.995 151.281  0.00  0.00    -0.317 OA
HETATM   18  C   UNK     0     160.911 177.938 153.519  0.00  0.00    -0.008 A 
HETATM   19  C   UNK     0     163.364 176.843 152.011  0.00  0.00     0.072 A 
HETATM   20  C   UNK     0     159.684 178.485 154.272  0.00  0.00     0.030 C 
HETATM   21  O   UNK     0     168.876 176.630 156.414  0.00  0.00    -0.365 OA
HETATM   22  C   UNK     0     168.996 177.025 157.898  0.00  0.00     0.149 A 
HETATM   23  C   UNK     0     170.101 176.083 155.661  0.00  0.00     0.151 A 
HETATM   24  C   UNK     0     171.449 175.931 156.390  0.00  0.00     0.021 A 
HETATM   25  C   UNK     0     170.344 176.873 158.628  0.00  0.00     0.030 A 
HETATM   26  C   UNK     0     171.570 176.326 157.874  0.00  0.00     0.004 A 
HETATM   27  C   UNK     0     169.980 175.688 154.177  0.00  0.00     0.071 C 
HETATM   28  C   UNK     0     171.207 175.140 153.423  0.00  0.00     0.066 C 
HETATM   29  C   UNK     0     169.738 174.897 151.209  0.00  0.00     0.028 C 
HETATM   30  C   UNK     0     171.086 174.745 151.939  0.00  0.00    -0.025 C 
HETATM   31  C   UNK     0     172.312 174.197 151.185  0.00  0.00     0.028 C 
HETATM   32  C   UNK     0     170.464 177.268 160.111  0.00  0.00     0.003 C 
HETATM   33  C   UNK     0     164.591 176.296 151.257  0.00  0.00    -0.021 C 
HETATM   34  C   UNK     0     165.938 176.144 151.986  0.00  0.00     0.028 C 
HETATM   35  C   UNK     0     164.469 175.901 149.773  0.00  0.00     0.048 C 
HETATM   36  C   UNK     0     165.696 175.353 149.020  0.00  0.00    -0.012 C 
HETATM   37  C   UNK     0     167.043 175.201 149.750  0.00  0.00     0.029 C 
HETATM   38  C   UNK     0     165.574 174.958 147.536  0.00  0.00     0.148 C 
HETATM   39  C   UNK     0     166.801 174.411 146.782  0.00  0.00     0.144 A 
HETATM   40  O   UNK     0     168.148 174.259 147.512  0.00  0.00    -0.322 OA
HETATM   41  O   UNK     0     164.227 175.110 146.806  0.00  0.00    -0.189 OA
HETATM   42  C   UNK     0     166.679 174.016 145.298  0.00  0.00     0.151 A 
HETATM   43  C   UNK     0     172.227 173.790 149.694  0.00  0.00     0.030 C 
HETATM   44  C   UNK     0     173.652 173.155 148.818  0.00  0.00    -0.026 C 
HETATM   45  C   UNK     0     167.906 173.468 144.545  0.00  0.00     0.004 A 
HETATM   46  C   UNK     0     169.255 173.331 145.326  0.00  0.00     0.002 A 
HETATM   47  C   UNK     0     169.375 173.711 146.759  0.00  0.00     0.175 A 
HETATM   48  O   UNK     0     165.332 174.168 144.569  0.00  0.00    -0.188 OA
HETATM   49  C   UNK     0     173.523 172.797 147.458  0.00  0.00    -0.005 C 
HETATM   50  C   UNK     0     172.051 173.004 146.803  0.00  0.00    -0.005 C 
HETATM   51  C   UNK     0     171.117 172.850 145.395  0.00  0.00    -0.024 C 
HETATM   52  C   UNK     0     167.739 173.091 143.079  0.00  0.00     0.033 C 
HETATM   53  O   UNK     0     167.703 177.184 157.244  0.00  0.00     0.000 OA
HETATM   54  C   UNK     0     171.787 172.302 144.120  0.00  0.00     0.031 C 
ENDROOT
BRANCH  16  55
HETATM   55  C   UNK     0     159.442 177.695 151.305  0.00  0.00     0.072 A 
HETATM   56  C   UNK     0     159.247 178.824 150.276  0.00  0.00     0.007 A 
HETATM   57  C   UNK     0     157.899 178.976 149.546  0.00  0.00     0.056 A 
HETATM   58  C   UNK     0     156.746 177.999 149.845  0.00  0.00     0.127 A 
HETATM   59  C   UNK     0     156.941 176.870 150.874  0.00  0.00     0.093 A 
HETATM   60  O   UNK     0     155.399 178.151 149.115  0.00  0.00    -0.193 OA
HETATM   61  C   UNK     0     158.289 176.718 151.604  0.00  0.00     0.053 A 
BRANCH  59  62
HETATM   62  O   UNK     0     155.790 175.893 151.172  0.00  0.00    -0.331 OA
HETATM   63  C   UNK     0     154.969 176.043 152.468  0.00  0.00     0.181 C 
ENDBRANCH  59  62
ENDBRANCH  16  55
BRANCH  28  64
HETATM   64  O   UNK     0     172.555 174.988 154.153  0.00  0.00    -0.333 OA
HETATM   65  C   UNK     0     173.550 176.161 154.183  0.00  0.00     0.181 C 
ENDBRANCH  28  64
TORSDOF 3
ENDMDL
MODEL 5
REMARK VINA RESULT:     -10.0     39.324     42.061
REMARK  3 active torsions:
REMARK  status: ('A' for Active; 'I' for Inactive)
REMARK    1  A    between atoms: C_16  and  C_21 
REMARK    2  A    between atoms: C_24  and  O_62 
REMARK    3  A    between atoms: C_34  and  O_35 
ROOT
HETATM    1  C   UNK     0     163.515 179.567 160.043  0.00  0.00     0.018 A 
HETATM    2  C   UNK     0     164.161 180.942 159.793  0.00  0.00     0.166 A 
HETATM    3  C   UNK     0     162.061 179.479 160.543  0.00  0.00     0.004 A 
HETATM    4  N   UNK     0     163.354 182.230 160.043  0.00  0.00    -0.347 N 
HETATM    5  C   UNK     0     161.254 180.766 160.793  0.00  0.00     0.024 A 
HETATM    6  C   UNK     0     161.900 182.141 160.543  0.00  0.00     0.099 A 
HETATM    7  C   UNK     0     165.615 181.030 159.292  0.00  0.00     0.281 C 
HETATM    8  O   UNK     0     166.262 182.405 159.042  0.00  0.00    -0.189 OA
HETATM    9  O   UNK     0     165.455 183.693 159.292  0.00  0.00    -0.196 OA
HETATM   10  C   UNK     0     164.001 183.604 159.792  0.00  0.00     0.265 A 
HETATM   11  C   UNK     0     163.194 184.893 160.042  0.00  0.00     0.231 A 
HETATM   12  O   UNK     0     161.739 184.805 160.542  0.00  0.00    -0.216 OA
HETATM   13  C   UNK     0     167.877 179.830 158.542  0.00  0.00     0.175 A 
HETATM   14  C   UNK     0     168.524 181.205 158.292  0.00  0.00     0.075 A 
HETATM   15  O   UNK     0     166.423 179.742 159.042  0.00  0.00    -0.336 OA
HETATM   16  C   UNK     0     170.138 178.631 157.792  0.00  0.00     0.065 A 
HETATM   17  O   UNK     0     170.785 180.006 157.542  0.00  0.00    -0.317 OA
HETATM   18  C   UNK     0     168.684 178.543 158.293  0.00  0.00    -0.008 A 
HETATM   19  C   UNK     0     169.978 181.294 157.792  0.00  0.00     0.072 A 
HETATM   20  C   UNK     0     168.039 177.168 158.542  0.00  0.00     0.030 C 
HETATM   21  O   UNK     0     165.293 186.356 159.292  0.00  0.00    -0.365 OA
HETATM   22  C   UNK     0     163.840 186.267 159.792  0.00  0.00     0.149 A 
HETATM   23  C   UNK     0     165.939 187.730 159.042  0.00  0.00     0.151 A 
HETATM   24  C   UNK     0     165.132 189.017 159.292  0.00  0.00     0.021 A 
HETATM   25  C   UNK     0     163.032 187.554 160.042  0.00  0.00     0.030 A 
HETATM   26  C   UNK     0     163.678 188.930 159.792  0.00  0.00     0.004 A 
HETATM   27  C   UNK     0     167.394 187.818 158.542  0.00  0.00     0.071 C 
HETATM   28  C   UNK     0     168.040 189.194 158.292  0.00  0.00     0.066 C 
HETATM   29  C   UNK     0     170.302 187.995 157.541  0.00  0.00     0.028 C 
HETATM   30  C   UNK     0     169.495 189.282 157.791  0.00  0.00    -0.025 C 
HETATM   31  C   UNK     0     170.141 190.657 157.541  0.00  0.00     0.028 C 
HETATM   32  C   UNK     0     161.579 187.466 160.542  0.00  0.00     0.003 C 
HETATM   33  C   UNK     0     170.624 182.670 157.542  0.00  0.00    -0.021 C 
HETATM   34  C   UNK     0     169.817 183.957 157.792  0.00  0.00     0.028 C 
HETATM   35  C   UNK     0     172.078 182.757 157.042  0.00  0.00     0.048 C 
HETATM   36  C   UNK     0     172.725 184.133 156.792  0.00  0.00    -0.012 C 
HETATM   37  C   UNK     0     171.917 185.420 157.042  0.00  0.00     0.029 C 
HETATM   38  C   UNK     0     174.179 184.220 156.291  0.00  0.00     0.148 C 
HETATM   39  C   UNK     0     174.825 185.596 156.041  0.00  0.00     0.144 A 
HETATM   40  O   UNK     0     174.017 186.883 156.291  0.00  0.00    -0.322 OA
HETATM   41  O   UNK     0     174.986 182.933 156.041  0.00  0.00    -0.189 OA
HETATM   42  C   UNK     0     176.279 185.683 155.541  0.00  0.00     0.151 A 
HETATM   43  C   UNK     0     171.601 190.783 157.038  0.00  0.00     0.030 C 
HETATM   44  C   UNK     0     172.351 192.381 156.748  0.00  0.00    -0.026 C 
HETATM   45  C   UNK     0     176.926 187.058 155.291  0.00  0.00     0.004 A 
HETATM   46  C   UNK     0     176.069 188.340 155.558  0.00  0.00     0.002 A 
HETATM   47  C   UNK     0     174.664 188.258 156.041  0.00  0.00     0.175 A 
HETATM   48  O   UNK     0     177.086 184.396 155.291  0.00  0.00    -0.188 OA
HETATM   49  C   UNK     0     173.686 192.443 156.289  0.00  0.00    -0.005 C 
HETATM   50  C   UNK     0     174.429 191.017 156.064  0.00  0.00    -0.005 C 
HETATM   51  C   UNK     0     175.868 190.254 155.587  0.00  0.00    -0.024 C 
HETATM   52  C   UNK     0     178.365 187.097 154.797  0.00  0.00     0.033 C 
HETATM   53  O   UNK     0     164.569 185.025 159.568  0.00  0.00     0.000 OA
HETATM   54  C   UNK     0     177.062 191.129 155.160  0.00  0.00     0.031 C 
ENDROOT
BRANCH  16  55
HETATM   55  C   UNK     0     170.946 177.344 157.542  0.00  0.00     0.072 A 
HETATM   56  C   UNK     0     170.700 176.516 156.267  0.00  0.00     0.007 A 
HETATM   57  C   UNK     0     171.508 175.228 156.017  0.00  0.00     0.056 A 
HETATM   58  C   UNK     0     172.562 174.769 157.042  0.00  0.00     0.127 A 
HETATM   59  C   UNK     0     172.808 175.597 158.317  0.00  0.00     0.093 A 
HETATM   60  O   UNK     0     173.369 173.482 156.792  0.00  0.00    -0.193 OA
HETATM   61  C   UNK     0     172.000 176.884 158.567  0.00  0.00     0.053 A 
BRANCH  59  62
HETATM   62  O   UNK     0     173.861 175.138 159.342  0.00  0.00    -0.331 OA
HETATM   63  C   UNK     0     174.220 176.043 160.535  0.00  0.00     0.181 C 
ENDBRANCH  59  62
ENDBRANCH  16  55
BRANCH  28  64
HETATM   64  O   UNK     0     167.233 190.482 158.542  0.00  0.00    -0.333 OA
HETATM   65  C   UNK     0     167.571 191.381 159.743  0.00  0.00     0.181 C 
ENDBRANCH  28  64
TORSDOF 3
ENDMDL
MODEL 6
REMARK VINA RESULT:      -9.9     62.782     71.617
REMARK  3 active torsions:
REMARK  status: ('A' for Active; 'I' for Inactive)
REMARK    1  A    between atoms: C_16  and  C_21 
REMARK    2  A    between atoms: C_24  and  O_62 
REMARK    3  A    between atoms: C_34  and  O_35 
ROOT
HETATM    1  C   UNK     0     124.331 141.771 174.216  0.00  0.00     0.018 A 
HETATM    2  C   UNK     0     125.641 141.606 173.424  0.00  0.00     0.166 A 
HETATM    3  C   UNK     0     123.034 142.165 173.485  0.00  0.00     0.004 A 
HETATM    4  N   UNK     0     125.654 141.835 171.901  0.00  0.00    -0.347 N 
HETATM    5  C   UNK     0     123.047 142.394 171.963  0.00  0.00     0.024 A 
HETATM    6  C   UNK     0     124.357 142.229 171.171  0.00  0.00     0.099 A 
HETATM    7  C   UNK     0     126.938 141.211 174.155  0.00  0.00     0.281 C 
HETATM    8  O   UNK     0     128.248 141.046 173.363  0.00  0.00    -0.189 OA
HETATM    9  O   UNK     0     128.262 141.275 171.839  0.00  0.00    -0.196 OA
HETATM   10  C   UNK     0     126.965 141.669 171.109  0.00  0.00     0.265 A 
HETATM   11  C   UNK     0     126.979 141.898 169.586  0.00  0.00     0.231 A 
HETATM   12  O   UNK     0     125.682 142.292 168.855  0.00  0.00    -0.216 OA
HETATM   13  C   UNK     0     128.222 140.588 176.409  0.00  0.00     0.175 A 
HETATM   14  C   UNK     0     129.532 140.422 175.617  0.00  0.00     0.075 A 
HETATM   15  O   UNK     0     126.925 140.982 175.678  0.00  0.00    -0.336 OA
HETATM   16  C   UNK     0     129.506 139.965 178.662  0.00  0.00     0.065 A 
HETATM   17  O   UNK     0     130.816 139.799 177.870  0.00  0.00    -0.317 OA
HETATM   18  C   UNK     0     128.209 140.359 177.931  0.00  0.00    -0.008 A 
HETATM   19  C   UNK     0     130.830 140.028 176.346  0.00  0.00     0.072 A 
HETATM   20  C   UNK     0     126.899 140.524 178.724  0.00  0.00     0.030 C 
HETATM   21  O   UNK     0     129.586 141.339 169.524  0.00  0.00    -0.365 OA
HETATM   22  C   UNK     0     128.288 141.733 168.794  0.00  0.00     0.149 A 
HETATM   23  C   UNK     0     130.895 141.173 168.732  0.00  0.00     0.151 A 
HETATM   24  C   UNK     0     130.909 141.402 167.210  0.00  0.00     0.021 A 
HETATM   25  C   UNK     0     128.301 141.962 167.271  0.00  0.00     0.030 A 
HETATM   26  C   UNK     0     129.612 141.797 166.479  0.00  0.00     0.004 A 
HETATM   27  C   UNK     0     132.192 140.779 169.463  0.00  0.00     0.071 C 
HETATM   28  C   UNK     0     133.504 140.614 168.671  0.00  0.00     0.066 C 
HETATM   29  C   UNK     0     134.788 139.990 170.925  0.00  0.00     0.028 C 
HETATM   30  C   UNK     0     134.801 140.219 169.402  0.00  0.00    -0.025 C 
HETATM   31  C   UNK     0     136.111 140.054 168.609  0.00  0.00     0.028 C 
HETATM   32  C   UNK     0     127.005 142.356 166.541  0.00  0.00     0.003 C 
HETATM   33  C   UNK     0     132.140 139.863 175.554  0.00  0.00    -0.021 C 
HETATM   34  C   UNK     0     132.154 140.092 174.032  0.00  0.00     0.028 C 
HETATM   35  C   UNK     0     133.437 139.468 176.285  0.00  0.00     0.048 C 
HETATM   36  C   UNK     0     134.748 139.303 175.493  0.00  0.00    -0.012 C 
HETATM   37  C   UNK     0     134.761 139.532 173.970  0.00  0.00     0.029 C 
HETATM   38  C   UNK     0     136.045 138.909 176.224  0.00  0.00     0.148 C 
HETATM   39  C   UNK     0     137.355 138.743 175.432  0.00  0.00     0.144 A 
HETATM   40  O   UNK     0     137.368 138.972 173.909  0.00  0.00    -0.322 OA
HETATM   41  O   UNK     0     136.032 138.680 177.747  0.00  0.00    -0.189 OA
HETATM   42  C   UNK     0     138.652 138.349 176.163  0.00  0.00     0.151 A 
HETATM   43  C   UNK     0     137.434 139.658 169.311  0.00  0.00     0.030 C 
HETATM   44  C   UNK     0     138.956 139.466 168.391  0.00  0.00    -0.026 C 
HETATM   45  C   UNK     0     139.963 138.184 175.371  0.00  0.00     0.004 A 
HETATM   46  C   UNK     0     139.930 138.426 173.825  0.00  0.00     0.002 A 
HETATM   47  C   UNK     0     138.679 138.807 173.117  0.00  0.00     0.175 A 
HETATM   48  O   UNK     0     138.639 138.120 177.685  0.00  0.00    -0.188 OA
HETATM   49  C   UNK     0     140.136 139.104 169.077  0.00  0.00    -0.005 C 
HETATM   50  C   UNK     0     139.991 138.892 170.681  0.00  0.00    -0.005 C 
HETATM   51  C   UNK     0     140.808 138.495 172.114  0.00  0.00    -0.024 C 
HETATM   52  C   UNK     0     141.220 137.793 176.135  0.00  0.00     0.033 C 
HETATM   53  O   UNK     0     128.233 141.525 170.236  0.00  0.00     0.000 OA
HETATM   54  C   UNK     0     142.314 138.177 172.043  0.00  0.00     0.031 C 
ENDROOT
BRANCH  16  55
HETATM   55  C   UNK     0     129.493 139.735 180.185  0.00  0.00     0.072 A 
HETATM   56  C   UNK     0     129.361 138.308 180.748  0.00  0.00     0.007 A 
HETATM   57  C   UNK     0     129.348 138.079 182.271  0.00  0.00     0.056 A 
HETATM   58  C   UNK     0     129.466 139.277 183.231  0.00  0.00     0.127 A 
HETATM   59  C   UNK     0     129.598 140.705 182.669  0.00  0.00     0.093 A 
HETATM   60  O   UNK     0     129.453 139.048 184.753  0.00  0.00    -0.193 OA
HETATM   61  C   UNK     0     129.611 140.934 181.145  0.00  0.00     0.053 A 
BRANCH  59  62
HETATM   62  O   UNK     0     129.716 141.903 183.628  0.00  0.00    -0.331 OA
HETATM   63  C   UNK     0     128.452 142.668 184.064  0.00  0.00     0.181 C 
ENDBRANCH  59  62
ENDBRANCH  16  55
BRANCH  28  64
HETATM   64  O   UNK     0     133.517 140.843 167.147  0.00  0.00    -0.333 OA
HETATM   65  C   UNK     0     134.125 142.132 166.569  0.00  0.00     0.181 C 
ENDBRANCH  28  64
TORSDOF 3
ENDMDL
MODEL 7
REMARK VINA RESULT:      -9.9     24.250     27.648
REMARK  3 active torsions:
REMARK  status: ('A' for Active; 'I' for Inactive)
REMARK    1  A    between atoms: C_16  and  C_21 
REMARK    2  A    between atoms: C_24  and  O_62 
REMARK    3  A    between atoms: C_34  and  O_35 
ROOT
HETATM    1  C   UNK     0     191.920 180.946 147.391  0.00  0.00     0.018 A 
HETATM    2  C   UNK     0     192.372 179.909 148.436  0.00  0.00     0.166 A 
HETATM    3  C   UNK     0     190.922 180.545 146.289  0.00  0.00     0.004 A 
HETATM    4  N   UNK     0     191.826 178.469 148.377  0.00  0.00    -0.347 N 
HETATM    5  C   UNK     0     190.377 179.107 146.230  0.00  0.00     0.024 A 
HETATM    6  C   UNK     0     190.829 178.069 147.275  0.00  0.00     0.099 A 
HETATM    7  C   UNK     0     193.369 180.310 149.539  0.00  0.00     0.281 C 
HETATM    8  O   UNK     0     193.821 179.272 150.583  0.00  0.00    -0.189 OA
HETATM    9  O   UNK     0     193.275 177.832 150.525  0.00  0.00    -0.196 OA
HETATM   10  C   UNK     0     192.278 177.432 149.422  0.00  0.00     0.265 A 
HETATM   11  C   UNK     0     191.733 175.993 149.364  0.00  0.00     0.231 A 
HETATM   12  O   UNK     0     190.735 175.591 148.261  0.00  0.00    -0.216 OA
HETATM   13  C   UNK     0     194.912 182.150 150.700  0.00  0.00     0.175 A 
HETATM   14  C   UNK     0     195.364 181.112 151.744  0.00  0.00     0.075 A 
HETATM   15  O   UNK     0     193.915 181.749 149.597  0.00  0.00    -0.336 OA
HETATM   16  C   UNK     0     196.455 183.990 151.861  0.00  0.00     0.065 A 
HETATM   17  O   UNK     0     196.907 182.952 152.905  0.00  0.00    -0.317 OA
HETATM   18  C   UNK     0     195.458 183.589 150.758  0.00  0.00    -0.008 A 
HETATM   19  C   UNK     0     196.361 181.512 152.847  0.00  0.00     0.072 A 
HETATM   20  C   UNK     0     195.007 184.627 149.714  0.00  0.00     0.030 C 
HETATM   21  O   UNK     0     193.181 175.355 151.510  0.00  0.00    -0.365 OA
HETATM   22  C   UNK     0     192.184 174.955 150.407  0.00  0.00     0.149 A 
HETATM   23  C   UNK     0     193.633 174.318 152.554  0.00  0.00     0.151 A 
HETATM   24  C   UNK     0     193.087 172.880 152.496  0.00  0.00     0.021 A 
HETATM   25  C   UNK     0     191.638 173.516 150.349  0.00  0.00     0.030 A 
HETATM   26  C   UNK     0     192.090 172.478 151.393  0.00  0.00     0.004 A 
HETATM   27  C   UNK     0     194.630 174.719 153.657  0.00  0.00     0.071 C 
HETATM   28  C   UNK     0     195.082 173.681 154.702  0.00  0.00     0.066 C 
HETATM   29  C   UNK     0     196.625 175.521 155.863  0.00  0.00     0.028 C 
HETATM   30  C   UNK     0     196.080 174.082 155.805  0.00  0.00    -0.025 C 
HETATM   31  C   UNK     0     196.531 173.044 156.849  0.00  0.00     0.028 C 
HETATM   32  C   UNK     0     190.641 173.116 149.246  0.00  0.00     0.003 C 
HETATM   33  C   UNK     0     196.813 180.475 153.892  0.00  0.00    -0.021 C 
HETATM   34  C   UNK     0     196.268 179.036 153.833  0.00  0.00     0.028 C 
HETATM   35  C   UNK     0     197.811 180.876 154.995  0.00  0.00     0.048 C 
HETATM   36  C   UNK     0     198.262 179.838 156.039  0.00  0.00    -0.012 C 
HETATM   37  C   UNK     0     197.717 178.399 155.980  0.00  0.00     0.029 C 
HETATM   38  C   UNK     0     199.260 180.239 157.142  0.00  0.00     0.148 C 
HETATM   39  C   UNK     0     199.712 179.201 158.186  0.00  0.00     0.144 A 
HETATM   40  O   UNK     0     199.166 177.762 158.127  0.00  0.00    -0.322 OA
HETATM   41  O   UNK     0     199.806 181.678 157.200  0.00  0.00    -0.189 OA
HETATM   42  C   UNK     0     200.709 179.603 159.289  0.00  0.00     0.151 A 
HETATM   43  C   UNK     0     197.533 173.412 157.972  0.00  0.00     0.030 C 
HETATM   44  C   UNK     0     198.058 172.207 159.185  0.00  0.00    -0.026 C 
HETATM   45  C   UNK     0     201.161 178.565 160.333  0.00  0.00     0.004 A 
HETATM   46  C   UNK     0     200.581 177.115 160.236  0.00  0.00     0.002 A 
HETATM   47  C   UNK     0     199.617 176.725 159.172  0.00  0.00     0.175 A 
HETATM   48  O   UNK     0     201.254 181.041 159.347  0.00  0.00    -0.188 OA
HETATM   49  C   UNK     0     198.973 172.592 160.189  0.00  0.00    -0.005 C 
HETATM   50  C   UNK     0     199.474 174.136 160.143  0.00  0.00    -0.005 C 
HETATM   51  C   UNK     0     200.455 175.307 160.882  0.00  0.00    -0.024 C 
HETATM   52  C   UNK     0     202.148 179.006 161.405  0.00  0.00     0.033 C 
HETATM   53  O   UNK     0     192.677 176.327 150.428  0.00  0.00     0.000 OA
HETATM   54  C   UNK     0     201.279 174.905 162.120  0.00  0.00     0.031 C 
ENDROOT
BRANCH  16  55
HETATM   55  C   UNK     0     197.001 185.429 151.920  0.00  0.00     0.072 A 
HETATM   56  C   UNK     0     196.028 186.623 151.910  0.00  0.00     0.007 A 
HETATM   57  C   UNK     0     196.574 188.062 151.969  0.00  0.00     0.056 A 
HETATM   58  C   UNK     0     198.093 188.307 152.037  0.00  0.00     0.127 A 
HETATM   59  C   UNK     0     199.066 187.114 152.047  0.00  0.00     0.093 A 
HETATM   60  O   UNK     0     198.638 189.746 152.096  0.00  0.00    -0.193 OA
HETATM   61  C   UNK     0     198.520 185.675 151.988  0.00  0.00     0.053 A 
BRANCH  59  62
HETATM   62  O   UNK     0     200.584 187.359 152.116  0.00  0.00    -0.331 OA
HETATM   63  C   UNK     0     201.514 186.274 152.691  0.00  0.00     0.181 C 
ENDBRANCH  59  62
ENDBRANCH  16  55
BRANCH  28  64
HETATM   64  O   UNK     0     194.536 172.242 154.643  0.00  0.00    -0.333 OA
HETATM   65  C   UNK     0     195.471 171.079 154.265  0.00  0.00     0.181 C 
ENDBRANCH  28  64
TORSDOF 3
ENDMDL
MODEL 8
REMARK VINA RESULT:      -9.8     64.653     71.091
REMARK  3 active torsions:
REMARK  status: ('A' for Active; 'I' for Inactive)
REMARK    1  A    between atoms: C_16  and  C_21 
REMARK    2  A    between atoms: C_24  and  O_62 
REMARK    3  A    between atoms: C_34  and  O_35 
ROOT
HETATM    1  C   UNK     0     124.643 169.365 169.642  0.00  0.00     0.018 A 
HETATM    2  C   UNK     0     126.026 169.912 170.043  0.00  0.00     0.166 A 
HETATM    3  C   UNK     0     123.822 168.537 170.648  0.00  0.00     0.004 A 
HETATM    4  N   UNK     0     126.588 169.631 171.449  0.00  0.00    -0.347 N 
HETATM    5  C   UNK     0     124.384 168.255 172.053  0.00  0.00     0.024 A 
HETATM    6  C   UNK     0     125.767 168.802 172.454  0.00  0.00     0.099 A 
HETATM    7  C   UNK     0     126.847 170.741 169.037  0.00  0.00     0.281 C 
HETATM    8  O   UNK     0     128.229 171.288 169.437  0.00  0.00    -0.189 OA
HETATM    9  O   UNK     0     128.792 171.007 170.844  0.00  0.00    -0.196 OA
HETATM   10  C   UNK     0     127.970 170.178 171.848  0.00  0.00     0.265 A 
HETATM   11  C   UNK     0     128.533 169.896 173.255  0.00  0.00     0.231 A 
HETATM   12  O   UNK     0     127.712 169.068 174.260  0.00  0.00    -0.216 OA
HETATM   13  C   UNK     0     127.106 171.852 166.625  0.00  0.00     0.175 A 
HETATM   14  C   UNK     0     128.489 172.399 167.025  0.00  0.00     0.075 A 
HETATM   15  O   UNK     0     126.285 171.023 167.631  0.00  0.00    -0.336 OA
HETATM   16  C   UNK     0     127.365 172.962 164.214  0.00  0.00     0.065 A 
HETATM   17  O   UNK     0     128.748 173.509 164.614  0.00  0.00    -0.317 OA
HETATM   18  C   UNK     0     126.544 172.133 165.220  0.00  0.00    -0.008 A 
HETATM   19  C   UNK     0     129.310 173.228 166.021  0.00  0.00     0.072 A 
HETATM   20  C   UNK     0     125.161 171.587 164.818  0.00  0.00     0.030 C 
HETATM   21  O   UNK     0     130.737 171.272 172.650  0.00  0.00    -0.365 OA
HETATM   22  C   UNK     0     129.915 170.443 173.655  0.00  0.00     0.149 A 
HETATM   23  C   UNK     0     132.119 171.819 173.051  0.00  0.00     0.151 A 
HETATM   24  C   UNK     0     132.680 171.537 174.456  0.00  0.00     0.021 A 
HETATM   25  C   UNK     0     130.477 170.161 175.061  0.00  0.00     0.030 A 
HETATM   26  C   UNK     0     131.859 170.708 175.462  0.00  0.00     0.004 A 
HETATM   27  C   UNK     0     132.940 172.647 172.045  0.00  0.00     0.071 C 
HETATM   28  C   UNK     0     134.323 173.195 172.446  0.00  0.00     0.066 C 
HETATM   29  C   UNK     0     134.582 174.305 170.034  0.00  0.00     0.028 C 
HETATM   30  C   UNK     0     135.144 174.024 171.440  0.00  0.00    -0.025 C 
HETATM   31  C   UNK     0     136.527 174.571 171.840  0.00  0.00     0.028 C 
HETATM   32  C   UNK     0     129.656 169.333 176.066  0.00  0.00     0.003 C 
HETATM   33  C   UNK     0     130.693 173.775 166.421  0.00  0.00    -0.021 C 
HETATM   34  C   UNK     0     131.255 173.493 167.826  0.00  0.00     0.028 C 
HETATM   35  C   UNK     0     131.514 174.603 165.415  0.00  0.00     0.048 C 
HETATM   36  C   UNK     0     132.897 175.150 165.816  0.00  0.00    -0.012 C 
HETATM   37  C   UNK     0     133.459 174.869 167.222  0.00  0.00     0.029 C 
HETATM   38  C   UNK     0     133.718 175.979 164.810  0.00  0.00     0.148 C 
HETATM   39  C   UNK     0     135.101 176.526 165.211  0.00  0.00     0.144 A 
HETATM   40  O   UNK     0     135.662 176.244 166.617  0.00  0.00    -0.322 OA
HETATM   41  O   UNK     0     133.156 176.261 163.404  0.00  0.00    -0.189 OA
HETATM   42  C   UNK     0     135.922 177.355 164.205  0.00  0.00     0.151 A 
HETATM   43  C   UNK     0     137.380 175.408 170.855  0.00  0.00     0.030 C 
HETATM   44  C   UNK     0     138.986 176.043 171.320  0.00  0.00    -0.026 C 
HETATM   45  C   UNK     0     137.304 177.902 164.605  0.00  0.00     0.004 A 
HETATM   46  C   UNK     0     137.836 177.592 166.044  0.00  0.00     0.002 A 
HETATM   47  C   UNK     0     137.045 176.791 167.017  0.00  0.00     0.175 A 
HETATM   48  O   UNK     0     135.360 177.637 162.800  0.00  0.00    -0.188 OA
HETATM   49  C   UNK     0     139.725 176.801 170.386  0.00  0.00    -0.005 C 
HETATM   50  C   UNK     0     139.025 177.028 168.939  0.00  0.00    -0.005 C 
HETATM   51  C   UNK     0     139.189 177.735 167.404  0.00  0.00    -0.024 C 
HETATM   52  C   UNK     0     138.080 178.716 163.579  0.00  0.00     0.033 C 
HETATM   53  O   UNK     0     129.348 170.687 172.335  0.00  0.00     0.000 OA
HETATM   54  C   UNK     0     140.475 178.522 167.088  0.00  0.00     0.031 C 
ENDROOT
BRANCH  16  55
HETATM   55  C   UNK     0     126.803 173.244 162.808  0.00  0.00     0.072 A 
HETATM   56  C   UNK     0     125.906 174.473 162.569  0.00  0.00     0.007 A 
HETATM   57  C   UNK     0     125.345 174.755 161.163  0.00  0.00     0.056 A 
HETATM   58  C   UNK     0     125.680 173.808 159.995  0.00  0.00     0.127 A 
HETATM   59  C   UNK     0     126.576 172.579 160.234  0.00  0.00     0.093 A 
HETATM   60  O   UNK     0     125.118 174.090 158.590  0.00  0.00    -0.193 OA
HETATM   61  C   UNK     0     127.138 172.297 161.640  0.00  0.00     0.053 A 
BRANCH  59  62
HETATM   62  O   UNK     0     126.912 171.632 159.067  0.00  0.00    -0.331 OA
HETATM   63  C   UNK     0     128.102 171.943 158.140  0.00  0.00     0.181 C 
ENDBRANCH  59  62
ENDBRANCH  16  55
BRANCH  28  64
HETATM   64  O   UNK     0     134.885 172.913 173.852  0.00  0.00    -0.333 OA
HETATM   65  C   UNK     0     135.986 171.855 174.043  0.00  0.00     0.181 C 
ENDBRANCH  28  64
TORSDOF 3
ENDMDL
MODEL 9
REMARK VINA RESULT:      -9.8     69.468     77.428
REMARK  3 active torsions:
REMARK  status: ('A' for Active; 'I' for Inactive)
REMARK    1  A    between atoms: C_16  and  C_21 
REMARK    2  A    between atoms: C_24  and  O_62 
REMARK    3  A    between atoms: C_34  and  O_35 
ROOT
HETATM    1  C   UNK     0     125.262 141.229 171.393  0.00  0.00     0.018 A 
HETATM    2  C   UNK     0     124.625 141.721 172.706  0.00  0.00     0.166 A 
HETATM    3  C   UNK     0     124.465 141.302 170.077  0.00  0.00     0.004 A 
HETATM    4  N   UNK     0     123.192 142.285 172.703  0.00  0.00    -0.347 N 
HETATM    5  C   UNK     0     123.033 141.865 170.074  0.00  0.00     0.024 A 
HETATM    6  C   UNK     0     122.396 142.357 171.387  0.00  0.00     0.099 A 
HETATM    7  C   UNK     0     125.422 141.649 174.022  0.00  0.00     0.281 C 
HETATM    8  O   UNK     0     124.785 142.141 175.336  0.00  0.00    -0.189 OA
HETATM    9  O   UNK     0     123.351 142.705 175.333  0.00  0.00    -0.196 OA
HETATM   10  C   UNK     0     122.556 142.777 174.017  0.00  0.00     0.265 A 
HETATM   11  C   UNK     0     121.122 143.341 174.014  0.00  0.00     0.231 A 
HETATM   12  O   UNK     0     120.326 143.413 172.698  0.00  0.00    -0.216 OA
HETATM   13  C   UNK     0     127.652 141.013 175.342  0.00  0.00     0.175 A 
HETATM   14  C   UNK     0     127.015 141.504 176.655  0.00  0.00     0.075 A 
HETATM   15  O   UNK     0     126.855 141.085 174.026  0.00  0.00    -0.336 OA
HETATM   16  C   UNK     0     129.881 140.377 176.661  0.00  0.00     0.065 A 
HETATM   17  O   UNK     0     129.244 140.869 177.974  0.00  0.00    -0.317 OA
HETATM   18  C   UNK     0     129.084 140.449 175.344  0.00  0.00    -0.008 A 
HETATM   19  C   UNK     0     127.810 141.433 177.972  0.00  0.00     0.072 A 
HETATM   20  C   UNK     0     129.722 139.957 174.032  0.00  0.00     0.030 C 
HETATM   21  O   UNK     0     121.281 143.761 176.643  0.00  0.00    -0.365 OA
HETATM   22  C   UNK     0     120.486 143.832 175.327  0.00  0.00     0.149 A 
HETATM   23  C   UNK     0     120.645 144.252 177.956  0.00  0.00     0.151 A 
HETATM   24  C   UNK     0     119.213 144.816 177.953  0.00  0.00     0.021 A 
HETATM   25  C   UNK     0     119.053 144.396 175.324  0.00  0.00     0.030 A 
HETATM   26  C   UNK     0     118.416 144.888 176.637  0.00  0.00     0.004 A 
HETATM   27  C   UNK     0     121.442 144.180 179.272  0.00  0.00     0.071 C 
HETATM   28  C   UNK     0     120.805 144.672 180.586  0.00  0.00     0.066 C 
HETATM   29  C   UNK     0     123.035 144.036 181.905  0.00  0.00     0.028 C 
HETATM   30  C   UNK     0     121.601 144.600 181.902  0.00  0.00    -0.025 C 
HETATM   31  C   UNK     0     120.965 145.091 183.215  0.00  0.00     0.028 C 
HETATM   32  C   UNK     0     118.257 144.468 174.008  0.00  0.00     0.003 C 
HETATM   33  C   UNK     0     127.174 141.925 179.285  0.00  0.00    -0.021 C 
HETATM   34  C   UNK     0     125.741 142.488 179.282  0.00  0.00     0.028 C 
HETATM   35  C   UNK     0     127.970 141.852 180.601  0.00  0.00     0.048 C 
HETATM   36  C   UNK     0     127.334 142.344 181.914  0.00  0.00    -0.012 C 
HETATM   37  C   UNK     0     125.900 142.908 181.911  0.00  0.00     0.029 C 
HETATM   38  C   UNK     0     128.130 142.272 183.231  0.00  0.00     0.148 C 
HETATM   39  C   UNK     0     127.494 142.764 184.544  0.00  0.00     0.144 A 
HETATM   40  O   UNK     0     126.060 143.328 184.541  0.00  0.00    -0.322 OA
HETATM   41  O   UNK     0     129.564 141.708 183.234  0.00  0.00    -0.189 OA
HETATM   42  C   UNK     0     128.290 142.691 185.860  0.00  0.00     0.151 A 
HETATM   43  C   UNK     0     121.736 145.034 184.557  0.00  0.00     0.030 C 
HETATM   44  C   UNK     0     120.996 145.605 186.083  0.00  0.00    -0.026 C 
HETATM   45  C   UNK     0     127.654 143.183 187.173  0.00  0.00     0.004 A 
HETATM   46  C   UNK     0     126.195 143.748 187.124  0.00  0.00     0.002 A 
HETATM   47  C   UNK     0     125.424 143.819 185.854  0.00  0.00     0.175 A 
HETATM   48  O   UNK     0     129.723 142.128 185.863  0.00  0.00    -0.188 OA
HETATM   49  C   UNK     0     121.741 145.532 187.280  0.00  0.00    -0.005 C 
HETATM   50  C   UNK     0     123.239 144.918 187.152  0.00  0.00    -0.005 C 
HETATM   51  C   UNK     0     124.657 144.513 187.991  0.00  0.00    -0.024 C 
HETATM   52  C   UNK     0     128.478 143.093 188.450  0.00  0.00     0.033 C 
HETATM   53  O   UNK     0     121.839 143.292 175.287  0.00  0.00     0.000 OA
HETATM   54  C   UNK     0     124.716 144.769 189.509  0.00  0.00     0.031 C 
ENDROOT
BRANCH  16  55
HETATM   55  C   UNK     0     131.314 139.813 176.664  0.00  0.00     0.072 A 
HETATM   56  C   UNK     0     132.436 140.558 175.917  0.00  0.00     0.007 A 
HETATM   57  C   UNK     0     133.870 139.994 175.920  0.00  0.00     0.056 A 
HETATM   58  C   UNK     0     134.181 138.685 176.670  0.00  0.00     0.127 A 
HETATM   59  C   UNK     0     133.059 137.940 177.417  0.00  0.00     0.093 A 
HETATM   60  O   UNK     0     135.614 138.122 176.673  0.00  0.00    -0.193 OA
HETATM   61  C   UNK     0     131.626 138.504 177.414  0.00  0.00     0.053 A 
BRANCH  59  62
HETATM   62  O   UNK     0     133.370 136.632 178.167  0.00  0.00    -0.331 OA
HETATM   63  C   UNK     0     133.924 136.681 179.603  0.00  0.00     0.181 C 
ENDBRANCH  59  62
ENDBRANCH  16  55
BRANCH  28  64
HETATM   64  O   UNK     0     119.371 145.236 180.583  0.00  0.00    -0.333 OA
HETATM   65  C   UNK     0     119.137 146.743 180.789  0.00  0.00     0.181 C 
ENDBRANCH  28  64
TORSDOF 3
ENDMDL
MODEL 10
REMARK VINA RESULT:      -9.8     64.595     69.598
REMARK  3 active torsions:
REMARK  status: ('A' for Active; 'I' for Inactive)
REMARK    1  A    between atoms: C_16  and  C_21 
REMARK    2  A    between atoms: C_24  and  O_62 
REMARK    3  A    between atoms: C_34  and  O_35 
ROOT
HETATM    1  C   UNK     0     137.517 148.430 147.404  0.00  0.00     0.018 A 
HETATM    2  C   UNK     0     137.104 149.483 148.448  0.00  0.00     0.166 A 
HETATM    3  C   UNK     0     138.535 148.792 146.306  0.00  0.00     0.004 A 
HETATM    4  N   UNK     0     137.709 150.899 148.396  0.00  0.00    -0.347 N 
HETATM    5  C   UNK     0     139.140 150.207 146.254  0.00  0.00     0.024 A 
HETATM    6  C   UNK     0     138.727 151.260 147.299  0.00  0.00     0.099 A 
HETATM    7  C   UNK     0     136.085 149.121 149.546  0.00  0.00     0.281 C 
HETATM    8  O   UNK     0     135.672 150.174 150.590  0.00  0.00    -0.189 OA
HETATM    9  O   UNK     0     136.277 151.590 150.538  0.00  0.00    -0.196 OA
HETATM   10  C   UNK     0     137.295 151.951 149.441  0.00  0.00     0.265 A 
HETATM   11  C   UNK     0     137.900 153.367 149.389  0.00  0.00     0.231 A 
HETATM   12  O   UNK     0     138.918 153.729 148.292  0.00  0.00    -0.216 OA
HETATM   13  C   UNK     0     134.462 147.344 150.696  0.00  0.00     0.175 A 
HETATM   14  C   UNK     0     134.049 148.397 151.740  0.00  0.00     0.075 A 
HETATM   15  O   UNK     0     135.480 147.706 149.598  0.00  0.00    -0.336 OA
HETATM   16  C   UNK     0     132.839 145.567 151.845  0.00  0.00     0.065 A 
HETATM   17  O   UNK     0     132.425 146.620 152.890  0.00  0.00    -0.317 OA
HETATM   18  C   UNK     0     133.857 145.929 150.748  0.00  0.00    -0.008 A 
HETATM   19  C   UNK     0     133.030 148.036 152.838  0.00  0.00     0.072 A 
HETATM   20  C   UNK     0     134.270 144.875 149.703  0.00  0.00     0.030 C 
HETATM   21  O   UNK     0     136.469 154.059 151.531  0.00  0.00    -0.365 OA
HETATM   22  C   UNK     0     137.487 154.420 150.433  0.00  0.00     0.149 A 
HETATM   23  C   UNK     0     136.056 155.112 152.575  0.00  0.00     0.151 A 
HETATM   24  C   UNK     0     136.661 156.527 152.522  0.00  0.00     0.021 A 
HETATM   25  C   UNK     0     138.092 155.835 150.380  0.00  0.00     0.030 A 
HETATM   26  C   UNK     0     137.679 156.889 151.425  0.00  0.00     0.004 A 
HETATM   27  C   UNK     0     135.038 154.750 153.672  0.00  0.00     0.071 C 
HETATM   28  C   UNK     0     134.624 155.804 154.717  0.00  0.00     0.066 C 
HETATM   29  C   UNK     0     133.001 154.026 155.867  0.00  0.00     0.028 C 
HETATM   30  C   UNK     0     133.606 155.441 155.815  0.00  0.00    -0.025 C 
HETATM   31  C   UNK     0     133.193 156.495 156.859  0.00  0.00     0.028 C 
HETATM   32  C   UNK     0     139.110 156.197 149.283  0.00  0.00     0.003 C 
HETATM   33  C   UNK     0     132.617 149.089 153.883  0.00  0.00    -0.021 C 
HETATM   34  C   UNK     0     133.222 150.504 153.830  0.00  0.00     0.028 C 
HETATM   35  C   UNK     0     131.599 148.727 154.980  0.00  0.00     0.048 C 
HETATM   36  C   UNK     0     131.186 149.780 156.025  0.00  0.00    -0.012 C 
HETATM   37  C   UNK     0     131.791 151.196 155.972  0.00  0.00     0.029 C 
HETATM   38  C   UNK     0     130.167 149.418 157.122  0.00  0.00     0.148 C 
HETATM   39  C   UNK     0     129.754 150.472 158.167  0.00  0.00     0.144 A 
HETATM   40  O   UNK     0     130.359 151.887 158.114  0.00  0.00    -0.322 OA
HETATM   41  O   UNK     0     129.562 148.003 157.175  0.00  0.00    -0.189 OA
HETATM   42  C   UNK     0     128.736 150.109 159.264  0.00  0.00     0.151 A 
HETATM   43  C   UNK     0     132.172 156.166 157.977  0.00  0.00     0.030 C 
HETATM   44  C   UNK     0     131.692 157.389 159.190  0.00  0.00    -0.026 C 
HETATM   45  C   UNK     0     128.322 151.163 160.309  0.00  0.00     0.004 A 
HETATM   46  C   UNK     0     128.962 152.588 160.218  0.00  0.00     0.002 A 
HETATM   47  C   UNK     0     129.946 152.940 159.159  0.00  0.00     0.175 A 
HETATM   48  O   UNK     0     128.131 148.695 159.316  0.00  0.00    -0.188 OA
HETATM   49  C   UNK     0     130.757 157.041 160.189  0.00  0.00    -0.005 C 
HETATM   50  C   UNK     0     130.192 155.519 160.137  0.00  0.00    -0.005 C 
HETATM   51  C   UNK     0     129.160 154.388 160.869  0.00  0.00    -0.024 C 
HETATM   52  C   UNK     0     127.313 150.760 161.375  0.00  0.00     0.033 C 
HETATM   53  O   UNK     0     136.938 153.070 150.448  0.00  0.00     0.000 OA
HETATM   54  C   UNK     0     128.347 154.820 162.104  0.00  0.00     0.031 C 
ENDROOT
BRANCH  16  55
HETATM   55  C   UNK     0     132.233 144.151 151.898  0.00  0.00     0.072 A 
HETATM   56  C   UNK     0     133.127 142.944 152.239  0.00  0.00     0.007 A 
HETATM   57  C   UNK     0     132.522 141.529 152.291  0.00  0.00     0.056 A 
HETATM   58  C   UNK     0     131.023 141.320 152.003  0.00  0.00     0.127 A 
HETATM   59  C   UNK     0     130.130 142.527 151.662  0.00  0.00     0.093 A 
HETATM   60  O   UNK     0     130.419 139.906 152.056  0.00  0.00    -0.193 OA
HETATM   61  C   UNK     0     130.735 143.943 151.609  0.00  0.00     0.053 A 
BRANCH  59  62
HETATM   62  O   UNK     0     128.632 142.320 151.374  0.00  0.00    -0.331 OA
HETATM   63  C   UNK     0     127.651 142.074 152.536  0.00  0.00     0.181 C 
ENDBRANCH  59  62
ENDBRANCH  16  55
BRANCH  28  64
HETATM   64  O   UNK     0     135.229 157.219 154.665  0.00  0.00    -0.333 OA
HETATM   65  C   UNK     0     134.344 158.421 154.292  0.00  0.00     0.181 C 
ENDBRANCH  28  64
TORSDOF 3
ENDMDL
