MODEL 1
REMARK VINA RESULT:      -7.2      0.000      0.000
REMARK  2 active torsions:
REMARK  status: ('A' for Active; 'I' for Inactive)
REMARK    1  A    between atoms: S_1  and  O_7 
REMARK    2  A    between atoms: O_7  and  C_18 
ROOT
HETATM    1  O   UNK     0     173.213 178.635 159.180  0.00  0.00    -0.342 OA
HETATM    2  O   UNK     0     170.481 175.856 159.751  0.00  0.00     0.000 OA
HETATM    3  O   UNK     0     170.746 178.533 158.949  0.00  0.00    -0.329 OA
HETATM    4  O   UNK     0     175.037 175.737 160.272  0.00  0.00    -0.343 OA
HETATM    5  O   UNK     0     173.830 173.637 160.794  0.00  0.00    -0.344 OA
HETATM    6  C   UNK     0     172.763 177.224 159.569  0.00  0.00     0.202 A 
HETATM    7  C   UNK     0     173.545 175.983 160.037  0.00  0.00     0.187 A 
HETATM    8  C   UNK     0     171.231 177.161 159.426  0.00  0.00     0.185 A 
HETATM    9  C   UNK     0     172.794 174.678 160.362  0.00  0.00     0.168 A 
HETATM   10  C   UNK     0     171.262 174.614 160.218  0.00  0.00     0.024 A 
HETATM   11  C   UNK     0     171.970 179.442 158.798  0.00  0.00     0.187 A 
HETATM   12  C   UNK     0     175.213 174.290 160.739  0.00  0.00     0.186 A 
HETATM   13  C   UNK     0     169.699 177.097 159.283  0.00  0.00     0.143 A 
HETATM   14  C   UNK     0     171.055 180.594 158.343  0.00  0.00     0.061 C 
HETATM   15  C   UNK     0     172.855 180.669 158.511  0.00  0.00     0.061 C 
HETATM   16  C   UNK     0     176.735 174.506 160.834  0.00  0.00     0.061 C 
HETATM   17  C   UNK     0     175.853 172.972 161.215  0.00  0.00     0.061 C 
ENDROOT
BRANCH  13  18
HETATM   18  O   UNK     0     168.917 178.339 158.815  0.00  0.00    -0.212 OA
BRANCH  18  19
HETATM   19  S   UNK     0     167.386 178.271 158.656  0.00  0.00     0.406 S 
HETATM   20  O   UNK     0     167.494 176.789 158.252  0.00  0.00    -0.172 OA
HETATM   21  O   UNK     0     167.279 179.754 159.060  0.00  0.00    -0.172 OA
HETATM   22  N   UNK     0     165.857 178.204 158.497  0.00  0.00    -0.021 N 
ENDBRANCH  18  19
ENDBRANCH  13  18
TORSDOF 2
ENDMDL
MODEL 2
REMARK VINA RESULT:      -7.2     25.947     27.339
REMARK  2 active torsions:
REMARK  status: ('A' for Active; 'I' for Inactive)
REMARK    1  A    between atoms: S_1  and  O_7 
REMARK    2  A    between atoms: O_7  and  C_18 
ROOT
HETATM    1  O   UNK     0     155.862 154.127 157.194  0.00  0.00    -0.342 OA
HETATM    2  O   UNK     0     158.813 154.559 159.766  0.00  0.00     0.000 OA
HETATM    3  O   UNK     0     158.256 153.486 157.233  0.00  0.00    -0.329 OA
HETATM    4  O   UNK     0     154.424 155.874 159.987  0.00  0.00    -0.343 OA
HETATM    5  O   UNK     0     155.826 156.438 161.951  0.00  0.00    -0.344 OA
HETATM    6  C   UNK     0     156.455 154.606 158.522  0.00  0.00     0.202 A 
HETATM    7  C   UNK     0     155.838 155.355 159.718  0.00  0.00     0.187 A 
HETATM    8  C   UNK     0     157.942 154.208 158.546  0.00  0.00     0.185 A 
HETATM    9  C   UNK     0     156.710 155.705 160.939  0.00  0.00     0.168 A 
HETATM   10  C   UNK     0     158.197 155.307 160.963  0.00  0.00     0.024 A 
HETATM   11  C   UNK     0     156.973 153.436 156.400  0.00  0.00     0.187 A 
HETATM   12  C   UNK     0     154.416 156.543 161.364  0.00  0.00     0.186 A 
HETATM   13  C   UNK     0     159.429 153.810 158.570  0.00  0.00     0.143 A 
HETATM   14  C   UNK     0     157.727 152.689 155.284  0.00  0.00     0.061 C 
HETATM   15  C   UNK     0     155.979 153.156 155.256  0.00  0.00     0.061 C 
HETATM   16  C   UNK     0     152.921 156.873 161.195  0.00  0.00     0.061 C 
HETATM   17  C   UNK     0     153.946 157.285 162.629  0.00  0.00     0.061 C 
ENDROOT
BRANCH  13  18
HETATM   18  O   UNK     0     160.046 153.061 157.373  0.00  0.00    -0.212 OA
BRANCH  18  19
HETATM   19  S   UNK     0     161.576 152.965 157.230  0.00  0.00     0.406 S 
HETATM   20  O   UNK     0     161.688 152.539 158.706  0.00  0.00    -0.172 OA
HETATM   21  O   UNK     0     161.465 153.391 155.754  0.00  0.00    -0.172 OA
HETATM   22  N   UNK     0     163.106 152.870 157.086  0.00  0.00    -0.021 N 
ENDBRANCH  18  19
ENDBRANCH  13  18
TORSDOF 2
ENDMDL
MODEL 3
REMARK VINA RESULT:      -7.1      2.853      3.128
REMARK  2 active torsions:
REMARK  status: ('A' for Active; 'I' for Inactive)
REMARK    1  A    between atoms: S_1  and  O_7 
REMARK    2  A    between atoms: O_7  and  C_18 
ROOT
HETATM    1  O   UNK     0     173.543 175.245 157.067  0.00  0.00    -0.342 OA
HETATM    2  O   UNK     0     170.592 174.773 159.633  0.00  0.00     0.000 OA
HETATM    3  O   UNK     0     171.105 175.694 157.031  0.00  0.00    -0.329 OA
HETATM    4  O   UNK     0     175.067 173.832 160.000  0.00  0.00    -0.343 OA
HETATM    5  O   UNK     0     173.681 173.307 161.986  0.00  0.00    -0.344 OA
HETATM    6  C   UNK     0     172.967 174.821 158.421  0.00  0.00     0.202 A 
HETATM    7  C   UNK     0     173.621 174.216 159.678  0.00  0.00     0.187 A 
HETATM    8  C   UNK     0     171.454 175.100 158.399  0.00  0.00     0.185 A 
HETATM    9  C   UNK     0     172.759 173.889 160.912  0.00  0.00     0.168 A 
HETATM   10  C   UNK     0     171.245 174.168 160.889  0.00  0.00     0.024 A 
HETATM   11  C   UNK     0     172.395 175.783 156.211  0.00  0.00     0.187 A 
HETATM   12  C   UNK     0     175.105 173.272 161.424  0.00  0.00     0.186 A 
HETATM   13  C   UNK     0     169.939 175.378 158.377  0.00  0.00     0.143 A 
HETATM   14  C   UNK     0     171.602 176.382 155.034  0.00  0.00     0.061 C 
HETATM   15  C   UNK     0     173.381 176.055 155.060  0.00  0.00     0.061 C 
HETATM   16  C   UNK     0     176.623 173.050 161.296  0.00  0.00     0.061 C 
HETATM   17  C   UNK     0     175.611 172.667 162.747  0.00  0.00     0.061 C 
ENDROOT
BRANCH  13  18
HETATM   18  O   UNK     0     169.286 175.984 157.120  0.00  0.00    -0.212 OA
BRANCH  18  19
HETATM   19  S   UNK     0     167.826 175.639 156.769  0.00  0.00     0.406 S 
HETATM   20  O   UNK     0     167.336 176.563 157.899  0.00  0.00    -0.172 OA
HETATM   21  O   UNK     0     168.316 174.716 155.638  0.00  0.00    -0.172 OA
HETATM   22  N   UNK     0     166.367 175.295 156.417  0.00  0.00    -0.021 N 
ENDBRANCH  18  19
ENDBRANCH  13  18
TORSDOF 2
ENDMDL
MODEL 4
REMARK VINA RESULT:      -6.9     26.199     28.760
REMARK  2 active torsions:
REMARK  status: ('A' for Active; 'I' for Inactive)
REMARK    1  A    between atoms: S_1  and  O_7 
REMARK    2  A    between atoms: O_7  and  C_18 
ROOT
HETATM    1  O   UNK     0     156.798 150.764 159.185  0.00  0.00    -0.342 OA
HETATM    2  O   UNK     0     159.447 153.665 159.477  0.00  0.00     0.000 OA
HETATM    3  O   UNK     0     159.237 150.954 158.780  0.00  0.00    -0.329 OA
HETATM    4  O   UNK     0     154.936 153.626 160.311  0.00  0.00    -0.343 OA
HETATM    5  O   UNK     0     156.090 155.787 160.682  0.00  0.00    -0.344 OA
HETATM    6  C   UNK     0     157.216 152.204 159.498  0.00  0.00     0.202 A 
HETATM    7  C   UNK     0     156.418 153.430 159.980  0.00  0.00     0.187 A 
HETATM    8  C   UNK     0     158.730 152.321 159.247  0.00  0.00     0.185 A 
HETATM    9  C   UNK     0     157.135 154.773 160.211  0.00  0.00     0.168 A 
HETATM   10  C   UNK     0     158.650 154.890 159.959  0.00  0.00     0.024 A 
HETATM   11  C   UNK     0     158.044 149.994 158.743  0.00  0.00     0.187 A 
HETATM   12  C   UNK     0     154.734 155.080 160.744  0.00  0.00     0.186 A 
HETATM   13  C   UNK     0     160.245 152.439 158.995  0.00  0.00     0.143 A 
HETATM   14  C   UNK     0     158.972 148.862 158.262  0.00  0.00     0.061 C 
HETATM   15  C   UNK     0     157.192 148.724 158.557  0.00  0.00     0.061 C 
HETATM   16  C   UNK     0     153.232 154.808 160.951  0.00  0.00     0.061 C 
HETATM   17  C   UNK     0     154.075 156.387 161.222  0.00  0.00     0.061 C 
ENDROOT
BRANCH  13  18
HETATM   18  O   UNK     0     161.043 151.213 158.513  0.00  0.00    -0.212 OA
BRANCH  18  19
HETATM   19  S   UNK     0     162.568 151.155 158.723  0.00  0.00     0.406 S 
HETATM   20  O   UNK     0     162.682 152.633 158.305  0.00  0.00    -0.172 OA
HETATM   21  O   UNK     0     162.455 149.677 159.141  0.00  0.00    -0.172 OA
HETATM   22  N   UNK     0     164.092 151.097 158.933  0.00  0.00    -0.021 N 
ENDBRANCH  18  19
ENDBRANCH  13  18
TORSDOF 2
ENDMDL
MODEL 5
REMARK VINA RESULT:      -6.8     43.945     46.629
REMARK  2 active torsions:
REMARK  status: ('A' for Active; 'I' for Inactive)
REMARK    1  A    between atoms: S_1  and  O_7 
REMARK    2  A    between atoms: O_7  and  C_18 
ROOT
HETATM    1  O   UNK     0     133.618 148.895 161.999  0.00  0.00    -0.342 OA
HETATM    2  O   UNK     0     133.412 152.450 160.315  0.00  0.00     0.000 OA
HETATM    3  O   UNK     0     135.270 150.471 161.033  0.00  0.00    -0.329 OA
HETATM    4  O   UNK     0     130.126 149.748 162.029  0.00  0.00    -0.343 OA
HETATM    5  O   UNK     0     129.370 151.910 161.084  0.00  0.00    -0.344 OA
HETATM    6  C   UNK     0     132.857 150.127 161.502  0.00  0.00     0.202 A 
HETATM    7  C   UNK     0     131.360 150.492 161.515  0.00  0.00     0.187 A 
HETATM    8  C   UNK     0     133.882 151.106 160.902  0.00  0.00     0.185 A 
HETATM    9  C   UNK     0     130.890 151.836 160.928  0.00  0.00     0.168 A 
HETATM   10  C   UNK     0     131.917 152.815 160.328  0.00  0.00     0.024 A 
HETATM   11  C   UNK     0     135.105 149.107 161.710  0.00  0.00     0.187 A 
HETATM   12  C   UNK     0     128.898 150.622 161.763  0.00  0.00     0.186 A 
HETATM   13  C   UNK     0     134.909 152.085 160.302  0.00  0.00     0.143 A 
HETATM   14  C   UNK     0     136.627 148.884 161.626  0.00  0.00     0.061 C 
HETATM   15  C   UNK     0     135.421 147.734 162.331  0.00  0.00     0.061 C 
HETATM   16  C   UNK     0     127.995 149.545 162.395  0.00  0.00     0.061 C 
HETATM   17  C   UNK     0     127.443 151.125 161.704  0.00  0.00     0.061 C 
ENDROOT
BRANCH  13  18
HETATM   18  O   UNK     0     136.405 151.720 160.289  0.00  0.00    -0.212 OA
BRANCH  18  19
HETATM   19  S   UNK     0     137.469 152.823 160.450  0.00  0.00     0.406 S 
HETATM   20  O   UNK     0     136.638 153.459 161.580  0.00  0.00    -0.172 OA
HETATM   21  O   UNK     0     138.299 152.187 159.319  0.00  0.00    -0.172 OA
HETATM   22  N   UNK     0     138.531 153.925 160.610  0.00  0.00    -0.021 N 
ENDBRANCH  18  19
ENDBRANCH  13  18
TORSDOF 2
ENDMDL
MODEL 6
REMARK VINA RESULT:      -6.6     36.685     38.578
REMARK  2 active torsions:
REMARK  status: ('A' for Active; 'I' for Inactive)
REMARK    1  A    between atoms: S_1  and  O_7 
REMARK    2  A    between atoms: O_7  and  C_18 
ROOT
HETATM    1  O   UNK     0     146.511 165.927 183.728  0.00  0.00    -0.342 OA
HETATM    2  O   UNK     0     142.666 166.667 184.153  0.00  0.00     0.000 OA
HETATM    3  O   UNK     0     144.625 164.786 184.864  0.00  0.00    -0.329 OA
HETATM    4  O   UNK     0     145.946 169.005 181.958  0.00  0.00    -0.343 OA
HETATM    5  O   UNK     0     143.672 169.986 181.874  0.00  0.00    -0.344 OA
HETATM    6  C   UNK     0     145.250 166.764 183.500  0.00  0.00     0.202 A 
HETATM    7  C   UNK     0     145.008 168.083 182.742  0.00  0.00     0.187 A 
HETATM    8  C   UNK     0     144.079 166.057 184.205  0.00  0.00     0.185 A 
HETATM    9  C   UNK     0     143.595 168.693 182.689  0.00  0.00     0.168 A 
HETATM   10  C   UNK     0     142.424 167.985 183.395  0.00  0.00     0.024 A 
HETATM   11  C   UNK     0     146.126 164.708 184.568  0.00  0.00     0.187 A 
HETATM   12  C   UNK     0     145.122 170.179 181.423  0.00  0.00     0.186 A 
HETATM   13  C   UNK     0     142.907 165.348 184.911  0.00  0.00     0.143 A 
HETATM   14  C   UNK     0     146.211 163.390 185.362  0.00  0.00     0.061 C 
HETATM   15  C   UNK     0     147.587 164.222 184.533  0.00  0.00     0.061 C 
HETATM   16  C   UNK     0     146.387 170.767 180.770  0.00  0.00     0.061 C 
HETATM   17  C   UNK     0     144.726 171.484 180.708  0.00  0.00     0.061 C 
ENDROOT
BRANCH  13  18
HETATM   18  O   UNK     0     143.149 164.029 185.670  0.00  0.00    -0.212 OA
BRANCH  18  19
HETATM   19  S   UNK     0     141.983 163.050 185.903  0.00  0.00     0.406 S 
HETATM   20  O   UNK     0     141.479 163.308 184.471  0.00  0.00    -0.172 OA
HETATM   21  O   UNK     0     142.487 162.792 187.336  0.00  0.00    -0.172 OA
HETATM   22  N   UNK     0     140.818 162.071 186.137  0.00  0.00    -0.021 N 
ENDBRANCH  18  19
ENDBRANCH  13  18
TORSDOF 2
ENDMDL
MODEL 7
REMARK VINA RESULT:      -6.4     44.609     46.990
REMARK  2 active torsions:
REMARK  status: ('A' for Active; 'I' for Inactive)
REMARK    1  A    between atoms: S_1  and  O_7 
REMARK    2  A    between atoms: O_7  and  C_18 
ROOT
HETATM    1  O   UNK     0     132.502 152.458 160.745  0.00  0.00    -0.342 OA
HETATM    2  O   UNK     0     133.518 148.699 160.152  0.00  0.00     0.000 OA
HETATM    3  O   UNK     0     131.354 150.458 159.834  0.00  0.00    -0.329 OA
HETATM    4  O   UNK     0     135.904 152.214 161.882  0.00  0.00    -0.343 OA
HETATM    5  O   UNK     0     137.101 150.048 161.756  0.00  0.00    -0.344 OA
HETATM    6  C   UNK     0     133.487 151.287 160.796  0.00  0.00     0.202 A 
HETATM    7  C   UNK     0     134.945 151.183 161.283  0.00  0.00     0.187 A 
HETATM    8  C   UNK     0     132.774 150.045 160.230  0.00  0.00     0.185 A 
HETATM    9  C   UNK     0     135.689 149.836 161.205  0.00  0.00     0.168 A 
HETATM   10  C   UNK     0     134.975 148.594 160.639  0.00  0.00     0.024 A 
HETATM   11  C   UNK     0     131.188 151.947 160.152  0.00  0.00     0.187 A 
HETATM   12  C   UNK     0     137.234 151.515 162.173  0.00  0.00     0.186 A 
HETATM   13  C   UNK     0     132.061 148.803 159.665  0.00  0.00     0.143 A 
HETATM   14  C   UNK     0     129.740 151.895 159.629  0.00  0.00     0.061 C 
HETATM   15  C   UNK     0     130.578 153.354 160.293  0.00  0.00     0.061 C 
HETATM   16  C   UNK     0     137.811 152.837 162.711  0.00  0.00     0.061 C 
HETATM   17  C   UNK     0     138.685 151.255 162.619  0.00  0.00     0.061 C 
ENDROOT
BRANCH  13  18
HETATM   18  O   UNK     0     130.603 148.907 159.178  0.00  0.00    -0.212 OA
BRANCH  18  19
HETATM   19  S   UNK     0     129.852 147.643 158.720  0.00  0.00     0.406 S 
HETATM   20  O   UNK     0     128.514 148.293 159.119  0.00  0.00    -0.172 OA
HETATM   21  O   UNK     0     131.190 146.992 158.321  0.00  0.00    -0.172 OA
HETATM   22  N   UNK     0     129.102 146.379 158.262  0.00  0.00    -0.021 N 
ENDBRANCH  18  19
ENDBRANCH  13  18
TORSDOF 2
ENDMDL
MODEL 8
REMARK VINA RESULT:      -6.4     45.323     47.188
REMARK  2 active torsions:
REMARK  status: ('A' for Active; 'I' for Inactive)
REMARK    1  A    between atoms: S_1  and  O_7 
REMARK    2  A    between atoms: O_7  and  C_18 
ROOT
HETATM    1  O   UNK     0     130.282 150.891 162.073  0.00  0.00    -0.342 OA
HETATM    2  O   UNK     0     132.199 153.269 159.586  0.00  0.00     0.000 OA
HETATM    3  O   UNK     0     129.746 153.024 160.929  0.00  0.00    -0.329 OA
HETATM    4  O   UNK     0     133.480 149.331 161.559  0.00  0.00    -0.343 OA
HETATM    5  O   UNK     0     135.148 150.387 160.061  0.00  0.00    -0.344 OA
HETATM    6  C   UNK     0     131.495 151.289 161.228  0.00  0.00     0.202 A 
HETATM    7  C   UNK     0     132.865 150.620 161.008  0.00  0.00     0.187 A 
HETATM    8  C   UNK     0     131.163 152.613 160.517  0.00  0.00     0.185 A 
HETATM    9  C   UNK     0     133.902 151.276 160.077  0.00  0.00     0.168 A 
HETATM   10  C   UNK     0     133.568 152.601 159.366  0.00  0.00     0.024 A 
HETATM   11  C   UNK     0     129.204 151.961 161.889  0.00  0.00     0.187 A 
HETATM   12  C   UNK     0     134.888 149.187 160.976  0.00  0.00     0.186 A 
HETATM   13  C   UNK     0     130.829 153.938 159.806  0.00  0.00     0.143 A 
HETATM   14  C   UNK     0     127.884 152.746 162.009  0.00  0.00     0.061 C 
HETATM   15  C   UNK     0     128.275 151.189 162.844  0.00  0.00     0.061 C 
HETATM   16  C   UNK     0     135.074 147.870 161.752  0.00  0.00     0.061 C 
HETATM   17  C   UNK     0     136.292 148.642 160.658  0.00  0.00     0.061 C 
ENDROOT
BRANCH  13  18
HETATM   18  O   UNK     0     129.459 154.607 160.026  0.00  0.00    -0.212 OA
BRANCH  18  19
HETATM   19  S   UNK     0     129.350 156.143 160.072  0.00  0.00     0.406 S 
HETATM   20  O   UNK     0     130.886 156.253 160.029  0.00  0.00    -0.172 OA
HETATM   21  O   UNK     0     127.814 156.032 160.114  0.00  0.00    -0.172 OA
HETATM   22  N   UNK     0     129.241 157.677 160.117  0.00  0.00    -0.021 N 
ENDBRANCH  18  19
ENDBRANCH  13  18
TORSDOF 2
ENDMDL
MODEL 9
REMARK VINA RESULT:      -6.3     42.570     44.941
REMARK  2 active torsions:
REMARK  status: ('A' for Active; 'I' for Inactive)
REMARK    1  A    between atoms: S_1  and  O_7 
REMARK    2  A    between atoms: O_7  and  C_18 
ROOT
HETATM    1  O   UNK     0     134.160 153.974 160.122  0.00  0.00    -0.342 OA
HETATM    2  O   UNK     0     134.746 150.295 161.401  0.00  0.00     0.000 OA
HETATM    3  O   UNK     0     132.692 152.035 160.605  0.00  0.00    -0.329 OA
HETATM    4  O   UNK     0     137.713 153.699 160.594  0.00  0.00    -0.343 OA
HETATM    5  O   UNK     0     138.695 151.572 161.403  0.00  0.00    -0.344 OA
HETATM    6  C   UNK     0     135.047 152.820 160.598  0.00  0.00     0.202 A 
HETATM    7  C   UNK     0     136.569 152.703 160.801  0.00  0.00     0.187 A 
HETATM    8  C   UNK     0     134.135 151.616 160.899  0.00  0.00     0.185 A 
HETATM    9  C   UNK     0     137.179 151.381 161.303  0.00  0.00     0.168 A 
HETATM   10  C   UNK     0     136.267 150.177 161.603  0.00  0.00     0.024 A 
HETATM   11  C   UNK     0     132.708 153.489 160.126  0.00  0.00     0.187 A 
HETATM   12  C   UNK     0     139.024 153.002 160.965  0.00  0.00     0.186 A 
HETATM   13  C   UNK     0     133.223 150.412 161.199  0.00  0.00     0.143 A 
HETATM   14  C   UNK     0     131.176 153.454 159.973  0.00  0.00     0.061 C 
HETATM   15  C   UNK     0     132.247 154.869 159.620  0.00  0.00     0.061 C 
HETATM   16  C   UNK     0     139.802 154.286 160.624  0.00  0.00     0.061 C 
HETATM   17  C   UNK     0     140.520 152.733 161.215  0.00  0.00     0.061 C 
ENDROOT
BRANCH  13  18
HETATM   18  O   UNK     0     131.701 150.529 160.996  0.00  0.00    -0.212 OA
BRANCH  18  19
HETATM   19  S   UNK     0     130.761 149.460 161.584  0.00  0.00     0.406 S 
HETATM   20  O   UNK     0     129.709 149.795 160.511  0.00  0.00    -0.172 OA
HETATM   21  O   UNK     0     131.813 149.125 162.658  0.00  0.00    -0.172 OA
HETATM   22  N   UNK     0     129.822 148.391 162.172  0.00  0.00    -0.021 N 
ENDBRANCH  18  19
ENDBRANCH  13  18
TORSDOF 2
ENDMDL
MODEL 10
REMARK VINA RESULT:      -6.2     10.030     10.936
REMARK  2 active torsions:
REMARK  status: ('A' for Active; 'I' for Inactive)
REMARK    1  A    between atoms: S_1  and  O_7 
REMARK    2  A    between atoms: O_7  and  C_18 
ROOT
HETATM    1  O   UNK     0     164.454 183.149 162.627  0.00  0.00    -0.342 OA
HETATM    2  O   UNK     0     161.226 181.226 161.446  0.00  0.00     0.000 OA
HETATM    3  O   UNK     0     162.669 183.585 160.962  0.00  0.00    -0.329 OA
HETATM    4  O   UNK     0     164.379 180.143 164.596  0.00  0.00    -0.343 OA
HETATM    5  O   UNK     0     162.543 178.506 164.291  0.00  0.00    -0.344 OA
HETATM    6  C   UNK     0     163.475 181.972 162.669  0.00  0.00     0.202 A 
HETATM    7  C   UNK     0     163.444 180.684 163.513  0.00  0.00     0.187 A 
HETATM    8  C   UNK     0     162.367 182.243 161.635  0.00  0.00     0.185 A 
HETATM    9  C   UNK     0     162.303 179.668 163.323  0.00  0.00     0.168 A 
HETATM   10  C   UNK     0     161.194 179.939 162.289  0.00  0.00     0.024 A 
HETATM   11  C   UNK     0     163.957 184.143 161.575  0.00  0.00     0.187 A 
HETATM   12  C   UNK     0     163.824 178.799 165.076  0.00  0.00     0.186 A 
HETATM   13  C   UNK     0     161.258 182.514 160.601  0.00  0.00     0.143 A 
HETATM   14  C   UNK     0     163.853 185.379 160.662  0.00  0.00     0.061 C 
HETATM   15  C   UNK     0     165.156 185.061 161.876  0.00  0.00     0.061 C 
HETATM   16  C   UNK     0     164.998 178.669 166.065  0.00  0.00     0.061 C 
HETATM   17  C   UNK     0     163.657 177.473 165.842  0.00  0.00     0.061 C 
ENDROOT
BRANCH  13  18
HETATM   18  O   UNK     0     161.290 183.802 159.757  0.00  0.00    -0.212 OA
BRANCH  18  19
HETATM   19  S   UNK     0     160.123 184.129 158.806  0.00  0.00     0.406 S 
HETATM   20  O   UNK     0     159.134 183.492 159.800  0.00  0.00    -0.172 OA
HETATM   21  O   UNK     0     161.112 184.766 157.812  0.00  0.00    -0.172 OA
HETATM   22  N   UNK     0     158.957 184.456 157.855  0.00  0.00    -0.021 N 
ENDBRANCH  18  19
ENDBRANCH  13  18
TORSDOF 2
ENDMDL
