MODEL 1
REMARK VINA RESULT:      -5.6      0.000      0.000
REMARK  4 active torsions:
REMARK  status: ('A' for Active; 'I' for Inactive)
REMARK    1  A    between atoms: C_2  and  C_16 
REMARK    2  A    between atoms: C_16  and  C_17 
REMARK    3  A    between atoms: C_17  and  C_18 
REMARK    4  A    between atoms: C_18  and  C_19 
ROOT
HETATM    1  C   UNK     0      -1.562   3.816  12.048  0.00  0.00    -0.026 A 
HETATM    2  C   UNK     0      -0.558   4.037  10.897  0.00  0.00    -0.041 A 
HETATM    3  C   UNK     0      -0.560   5.379  10.121  0.00  0.00     0.076 A 
HETATM    4  C   UNK     0      -1.559   6.485  10.501  0.00  0.00     0.109 A 
HETATM    5  C   UNK     0      -2.561   4.927  12.424  0.00  0.00     0.067 A 
HETATM    6  C   UNK     0      -2.552   6.260  11.644  0.00  0.00     0.003 A 
HETATM    7  C   UNK     0      -4.561   5.829  13.943  0.00  0.00    -0.030 A 
HETATM    8  C   UNK     0      -4.553   7.161  13.163  0.00  0.00    -0.031 A 
HETATM    9  C   UNK     0      -3.540   7.367  12.011  0.00  0.00    -0.028 A 
HETATM   10  C   UNK     0      -3.522   8.691  11.226  0.00  0.00     0.026 A 
HETATM   11  C   UNK     0      -4.516   9.820  11.587  0.00  0.00     0.005 A 
HETATM   12  C   UNK     0      -5.530   9.616  12.739  0.00  0.00     0.005 A 
HETATM   13  C   UNK     0      -5.549   8.282  13.531  0.00  0.00     0.026 A 
HETATM   14  C   UNK     0      -4.498  11.145  10.801  0.00  0.00     0.000 C 
HETATM   15  O   UNK     0      -1.561   7.818   9.731  0.00  0.00    -0.195 OA
HETATM   16  C   UNK     0      -3.566   4.714  13.573  0.00  0.00    -0.022 A 
HETATM   17  C   UNK     0      -5.565   5.615  15.091  0.00  0.00     0.030 C 
HETATM   18  O   UNK     0      -2.571   3.603  13.201  0.00  0.00     0.000 OA
ENDROOT
BRANCH   2  19
HETATM   19  C   UNK     0       0.441   2.928  10.519  0.00  0.00     0.022 C 
BRANCH  19  20
HETATM   20  C   UNK     0       1.930   3.077  10.883  0.00  0.00     0.004 C 
BRANCH  20  21
HETATM   21  C   UNK     0       2.646   4.421  10.654  0.00  0.00     0.000 C 
BRANCH  21  22
HETATM   22  C   UNK     0       3.261   4.741   9.279  0.00  0.00     0.000 C 
HETATM   23  C   UNK     0       3.213   6.178   8.729  0.00  0.00     0.000 C 
ENDBRANCH  21  22
ENDBRANCH  20  21
ENDBRANCH  19  20
ENDBRANCH   2  19
TORSDOF 4
ENDMDL
MODEL 2
REMARK VINA RESULT:      -5.6      2.592      5.296
REMARK  4 active torsions:
REMARK  status: ('A' for Active; 'I' for Inactive)
REMARK    1  A    between atoms: C_2  and  C_16 
REMARK    2  A    between atoms: C_16  and  C_17 
REMARK    3  A    between atoms: C_17  and  C_18 
REMARK    4  A    between atoms: C_18  and  C_19 
ROOT
HETATM    1  C   UNK     0       3.324   4.891   9.336  0.00  0.00    -0.026 A 
HETATM    2  C   UNK     0       3.040   3.410   9.667  0.00  0.00    -0.041 A 
HETATM    3  C   UNK     0       1.700   3.014  10.338  0.00  0.00     0.076 A 
HETATM    4  C   UNK     0       0.659   4.096  10.672  0.00  0.00     0.109 A 
HETATM    5  C   UNK     0       2.277   5.970   9.672  0.00  0.00     0.067 A 
HETATM    6  C   UNK     0       0.945   5.563  10.341  0.00  0.00     0.003 A 
HETATM    7  C   UNK     0       1.502   8.524   9.684  0.00  0.00    -0.030 A 
HETATM    8  C   UNK     0       0.171   8.117  10.352  0.00  0.00    -0.031 A 
HETATM    9  C   UNK     0      -0.097   6.628  10.677  0.00  0.00    -0.028 A 
HETATM   10  C   UNK     0      -1.421   6.211  11.344  0.00  0.00     0.026 A 
HETATM   11  C   UNK     0      -2.486   7.278  11.690  0.00  0.00     0.005 A 
HETATM   12  C   UNK     0      -2.218   8.768  11.365  0.00  0.00     0.005 A 
HETATM   13  C   UNK     0      -0.884   9.190  10.693  0.00  0.00     0.026 A 
HETATM   14  C   UNK     0      -3.810   6.860  12.357  0.00  0.00     0.000 C 
HETATM   15  O   UNK     0      -0.673   3.704  11.338  0.00  0.00    -0.195 OA
HETATM   16  C   UNK     0       2.554   7.450   9.345  0.00  0.00    -0.022 A 
HETATM   17  C   UNK     0       1.779  10.002   9.356  0.00  0.00     0.030 C 
HETATM   18  O   UNK     0       3.600   6.377   9.008  0.00  0.00     0.000 OA
ENDROOT
BRANCH   2  19
HETATM   19  C   UNK     0       4.085   2.329   9.332  0.00  0.00     0.022 C 
BRANCH  19  20
HETATM   20  C   UNK     0       4.047   1.620   7.966  0.00  0.00     0.004 C 
BRANCH  20  21
HETATM   21  C   UNK     0       5.055   2.009   6.869  0.00  0.00     0.000 C 
BRANCH  21  22
HETATM   22  C   UNK     0       5.924   3.269   7.033  0.00  0.00     0.000 C 
HETATM   23  C   UNK     0       5.459   4.608   6.430  0.00  0.00     0.000 C 
ENDBRANCH  21  22
ENDBRANCH  20  21
ENDBRANCH  19  20
ENDBRANCH   2  19
TORSDOF 4
ENDMDL
MODEL 3
REMARK VINA RESULT:      -5.5      1.420      7.051
REMARK  4 active torsions:
REMARK  status: ('A' for Active; 'I' for Inactive)
REMARK    1  A    between atoms: C_2  and  C_16 
REMARK    2  A    between atoms: C_16  and  C_17 
REMARK    3  A    between atoms: C_17  and  C_18 
REMARK    4  A    between atoms: C_18  and  C_19 
ROOT
HETATM    1  C   UNK     0      -3.846   7.096  12.432  0.00  0.00    -0.026 A 
HETATM    2  C   UNK     0      -3.930   8.520  11.844  0.00  0.00    -0.041 A 
HETATM    3  C   UNK     0      -2.776   9.057  10.960  0.00  0.00     0.076 A 
HETATM    4  C   UNK     0      -1.552   8.170  10.672  0.00  0.00     0.109 A 
HETATM    5  C   UNK     0      -2.619   6.212  12.140  0.00  0.00     0.067 A 
HETATM    6  C   UNK     0      -1.475   6.758  11.258  0.00  0.00     0.003 A 
HETATM    7  C   UNK     0      -1.298   3.911  12.428  0.00  0.00    -0.030 A 
HETATM    8  C   UNK     0      -0.155   4.457  11.545  0.00  0.00    -0.031 A 
HETATM    9  C   UNK     0      -0.254   5.888  10.963  0.00  0.00    -0.028 A 
HETATM   10  C   UNK     0       0.880   6.443  10.083  0.00  0.00     0.026 A 
HETATM   11  C   UNK     0       2.122   5.572   9.776  0.00  0.00     0.005 A 
HETATM   12  C   UNK     0       2.223   4.141  10.358  0.00  0.00     0.005 A 
HETATM   13  C   UNK     0       1.080   3.580  11.246  0.00  0.00     0.026 A 
HETATM   14  C   UNK     0       3.256   6.128   8.895  0.00  0.00     0.000 C 
HETATM   15  O   UNK     0      -0.405   8.703   9.793  0.00  0.00    -0.195 OA
HETATM   16  C   UNK     0      -2.528   4.788  12.724  0.00  0.00    -0.022 A 
HETATM   17  C   UNK     0      -1.208   2.489  13.011  0.00  0.00     0.030 C 
HETATM   18  O   UNK     0      -3.754   5.666  13.018  0.00  0.00     0.000 OA
ENDROOT
BRANCH   2  19
HETATM   19  C   UNK     0      -5.156   9.406  12.135  0.00  0.00     0.022 C 
BRANCH  19  20
HETATM   20  C   UNK     0      -5.121  10.906  11.788  0.00  0.00     0.004 C 
BRANCH  20  21
HETATM   21  C   UNK     0      -5.417  11.369  10.349  0.00  0.00     0.000 C 
BRANCH  21  22
HETATM   22  C   UNK     0      -6.684  12.190  10.050  0.00  0.00     0.000 C 
HETATM   23  C   UNK     0      -7.284  13.103  11.136  0.00  0.00     0.000 C 
ENDBRANCH  21  22
ENDBRANCH  20  21
ENDBRANCH  19  20
ENDBRANCH   2  19
TORSDOF 4
ENDMDL
MODEL 4
REMARK VINA RESULT:      -5.4      1.658      2.762
REMARK  4 active torsions:
REMARK  status: ('A' for Active; 'I' for Inactive)
REMARK    1  A    between atoms: C_2  and  C_16 
REMARK    2  A    between atoms: C_16  and  C_17 
REMARK    3  A    between atoms: C_17  and  C_18 
REMARK    4  A    between atoms: C_18  and  C_19 
ROOT
HETATM    1  C   UNK     0      -2.146   4.162  12.555  0.00  0.00    -0.026 A 
HETATM    2  C   UNK     0      -1.076   4.228  11.445  0.00  0.00    -0.041 A 
HETATM    3  C   UNK     0      -0.963   5.496  10.559  0.00  0.00     0.076 A 
HETATM    4  C   UNK     0      -1.916   6.681  10.789  0.00  0.00     0.109 A 
HETATM    5  C   UNK     0      -3.098   5.352  12.780  0.00  0.00     0.067 A 
HETATM    6  C   UNK     0      -2.976   6.609  11.891  0.00  0.00     0.003 A 
HETATM    7  C   UNK     0      -5.118   6.486  14.106  0.00  0.00    -0.030 A 
HETATM    8  C   UNK     0      -4.996   7.743  13.217  0.00  0.00    -0.031 A 
HETATM    9  C   UNK     0      -3.916   7.793  12.108  0.00  0.00    -0.028 A 
HETATM   10  C   UNK     0      -3.785   9.041  11.216  0.00  0.00     0.026 A 
HETATM   11  C   UNK     0      -4.731  10.248  11.425  0.00  0.00     0.005 A 
HETATM   12  C   UNK     0      -5.811  10.198  12.534  0.00  0.00     0.005 A 
HETATM   13  C   UNK     0      -5.944   8.941  13.434  0.00  0.00     0.026 A 
HETATM   14  C   UNK     0      -4.599  11.496  10.532  0.00  0.00     0.000 C 
HETATM   15  O   UNK     0      -1.804   7.940   9.909  0.00  0.00    -0.195 OA
HETATM   16  C   UNK     0      -4.170   5.293  13.886  0.00  0.00    -0.022 A 
HETATM   17  C   UNK     0      -6.188   6.426  15.211  0.00  0.00     0.030 C 
HETATM   18  O   UNK     0      -3.223   4.104  13.665  0.00  0.00     0.000 OA
ENDROOT
BRANCH   2  19
HETATM   19  C   UNK     0      -0.123   3.040  11.218  0.00  0.00     0.022 C 
BRANCH  19  20
HETATM   20  C   UNK     0      -0.213   2.219   9.918  0.00  0.00     0.004 C 
BRANCH  20  21
HETATM   21  C   UNK     0      -1.024   0.911   9.889  0.00  0.00     0.000 C 
BRANCH  21  22
HETATM   22  C   UNK     0      -2.528   0.930  10.219  0.00  0.00     0.000 C 
HETATM   23  C   UNK     0      -3.076   0.057  11.363  0.00  0.00     0.000 C 
ENDBRANCH  21  22
ENDBRANCH  20  21
ENDBRANCH  19  20
ENDBRANCH   2  19
TORSDOF 4
ENDMDL
MODEL 5
REMARK VINA RESULT:      -5.4     15.313     18.218
REMARK  4 active torsions:
REMARK  status: ('A' for Active; 'I' for Inactive)
REMARK    1  A    between atoms: C_2  and  C_16 
REMARK    2  A    between atoms: C_16  and  C_17 
REMARK    3  A    between atoms: C_17  and  C_18 
REMARK    4  A    between atoms: C_18  and  C_19 
ROOT
HETATM    1  C   UNK     0      -7.810 -10.539   6.191  0.00  0.00    -0.026 A 
HETATM    2  C   UNK     0      -8.732 -11.000   7.339  0.00  0.00    -0.041 A 
HETATM    3  C   UNK     0      -8.361 -10.664   8.806  0.00  0.00     0.076 A 
HETATM    4  C   UNK     0      -7.077  -9.874   9.113  0.00  0.00     0.109 A 
HETATM    5  C   UNK     0      -6.525  -9.749   6.503  0.00  0.00     0.067 A 
HETATM    6  C   UNK     0      -6.166  -9.420   7.969  0.00  0.00     0.003 A 
HETATM    7  C   UNK     0      -4.317  -8.496   5.681  0.00  0.00    -0.030 A 
HETATM    8  C   UNK     0      -3.958  -8.167   7.147  0.00  0.00    -0.031 A 
HETATM    9  C   UNK     0      -4.894  -8.636   8.287  0.00  0.00    -0.028 A 
HETATM   10  C   UNK     0      -4.546  -8.315   9.751  0.00  0.00     0.026 A 
HETATM   11  C   UNK     0      -3.261  -7.522  10.088  0.00  0.00     0.005 A 
HETATM   12  C   UNK     0      -2.324  -7.052   8.948  0.00  0.00     0.005 A 
HETATM   13  C   UNK     0      -2.673  -7.376   7.471  0.00  0.00     0.026 A 
HETATM   14  C   UNK     0      -2.914  -7.200  11.554  0.00  0.00     0.000 C 
HETATM   15  O   UNK     0      -6.708  -9.540  10.570  0.00  0.00    -0.195 OA
HETATM   16  C   UNK     0      -5.600  -9.286   5.361  0.00  0.00    -0.022 A 
HETATM   17  C   UNK     0      -3.392  -8.034   4.540  0.00  0.00     0.030 C 
HETATM   18  O   UNK     0      -6.880 -10.074   5.045  0.00  0.00     0.000 OA
ENDROOT
BRANCH   2  19
HETATM   19  C   UNK     0     -10.017 -11.790   7.029  0.00  0.00     0.022 C 
BRANCH  19  20
HETATM   20  C   UNK     0     -10.491 -11.947   5.572  0.00  0.00     0.004 C 
BRANCH  20  21
HETATM   21  C   UNK     0     -10.733 -13.351   4.989  0.00  0.00     0.000 C 
BRANCH  21  22
HETATM   22  C   UNK     0      -9.603 -14.397   5.007  0.00  0.00     0.000 C 
HETATM   23  C   UNK     0      -8.145 -13.959   4.777  0.00  0.00     0.000 C 
ENDBRANCH  21  22
ENDBRANCH  20  21
ENDBRANCH  19  20
ENDBRANCH   2  19
TORSDOF 4
ENDMDL
MODEL 6
REMARK VINA RESULT:      -5.4     20.368     22.951
REMARK  4 active torsions:
REMARK  status: ('A' for Active; 'I' for Inactive)
REMARK    1  A    between atoms: C_2  and  C_16 
REMARK    2  A    between atoms: C_16  and  C_17 
REMARK    3  A    between atoms: C_17  and  C_18 
REMARK    4  A    between atoms: C_18  and  C_19 
ROOT
HETATM    1  C   UNK     0      -4.646  -8.621  -4.797  0.00  0.00    -0.026 A 
HETATM    2  C   UNK     0      -3.874  -7.577  -3.962  0.00  0.00    -0.041 A 
HETATM    3  C   UNK     0      -3.488  -7.897  -2.495  0.00  0.00     0.076 A 
HETATM    4  C   UNK     0      -3.874  -9.251  -1.877  0.00  0.00     0.109 A 
HETATM    5  C   UNK     0      -5.030  -9.975  -4.173  0.00  0.00     0.067 A 
HETATM    6  C   UNK     0      -4.640 -10.283  -2.710  0.00  0.00     0.003 A 
HETATM    7  C   UNK     0      -6.182 -12.375  -4.369  0.00  0.00    -0.030 A 
HETATM    8  C   UNK     0      -5.792 -12.682  -2.907  0.00  0.00    -0.031 A 
HETATM    9  C   UNK     0      -5.018 -11.624  -2.083  0.00  0.00    -0.028 A 
HETATM   10  C   UNK     0      -4.624 -11.919  -0.625  0.00  0.00     0.026 A 
HETATM   11  C   UNK     0      -5.000 -13.273   0.022  0.00  0.00     0.005 A 
HETATM   12  C   UNK     0      -5.774 -14.333  -0.801  0.00  0.00     0.005 A 
HETATM   13  C   UNK     0      -6.172 -14.037  -2.271  0.00  0.00     0.026 A 
HETATM   14  C   UNK     0      -4.605 -13.568   1.481  0.00  0.00     0.000 C 
HETATM   15  O   UNK     0      -3.491  -9.570  -0.420  0.00  0.00    -0.195 OA
HETATM   16  C   UNK     0      -5.801 -11.023  -5.000  0.00  0.00    -0.022 A 
HETATM   17  C   UNK     0      -6.952 -13.421  -5.196  0.00  0.00     0.030 C 
HETATM   18  O   UNK     0      -5.420  -9.673  -5.626  0.00  0.00     0.000 OA
ENDROOT
BRANCH   2  19
HETATM   19  C   UNK     0      -3.489  -6.222  -4.584  0.00  0.00     0.022 C 
BRANCH  19  20
HETATM   20  C   UNK     0      -3.083  -6.144  -6.068  0.00  0.00     0.004 C 
BRANCH  20  21
HETATM   21  C   UNK     0      -1.610  -6.339  -6.474  0.00  0.00     0.000 C 
BRANCH  21  22
HETATM   22  C   UNK     0      -0.559  -6.701  -5.408  0.00  0.00     0.000 C 
HETATM   23  C   UNK     0      -0.349  -8.171  -5.002  0.00  0.00     0.000 C 
ENDBRANCH  21  22
ENDBRANCH  20  21
ENDBRANCH  19  20
ENDBRANCH   2  19
TORSDOF 4
ENDMDL
MODEL 7
REMARK VINA RESULT:      -5.4      2.084      7.890
REMARK  4 active torsions:
REMARK  status: ('A' for Active; 'I' for Inactive)
REMARK    1  A    between atoms: C_2  and  C_16 
REMARK    2  A    between atoms: C_16  and  C_17 
REMARK    3  A    between atoms: C_17  and  C_18 
REMARK    4  A    between atoms: C_18  and  C_19 
ROOT
HETATM    1  C   UNK     0      -2.801   9.394  11.642  0.00  0.00    -0.026 A 
HETATM    2  C   UNK     0      -3.904   8.449  12.162  0.00  0.00    -0.041 A 
HETATM    3  C   UNK     0      -3.663   6.918  12.177  0.00  0.00     0.076 A 
HETATM    4  C   UNK     0      -2.327   6.345  11.674  0.00  0.00     0.109 A 
HETATM    5  C   UNK     0      -1.464   8.816  11.139  0.00  0.00     0.067 A 
HETATM    6  C   UNK     0      -1.236   7.288  11.159  0.00  0.00     0.003 A 
HETATM    7  C   UNK     0       0.976   9.167  10.117  0.00  0.00    -0.030 A 
HETATM    8  C   UNK     0       1.204   7.641  10.137  0.00  0.00    -0.031 A 
HETATM    9  C   UNK     0       0.087   6.706  10.662  0.00  0.00    -0.028 A 
HETATM   10  C   UNK     0       0.303   5.183  10.686  0.00  0.00     0.026 A 
HETATM   11  C   UNK     0       1.638   4.580  10.185  0.00  0.00     0.005 A 
HETATM   12  C   UNK     0       2.756   5.513   9.660  0.00  0.00     0.005 A 
HETATM   13  C   UNK     0       2.540   7.050   9.635  0.00  0.00     0.026 A 
HETATM   14  C   UNK     0       1.854   3.055  10.209  0.00  0.00     0.000 C 
HETATM   15  O   UNK     0      -2.086   4.824  11.687  0.00  0.00    -0.195 OA
HETATM   16  C   UNK     0      -0.358   9.753  10.619  0.00  0.00    -0.022 A 
HETATM   17  C   UNK     0       2.081  10.105   9.597  0.00  0.00     0.030 C 
HETATM   18  O   UNK     0      -1.689  10.334  11.119  0.00  0.00     0.000 OA
ENDROOT
BRANCH   2  19
HETATM   19  C   UNK     0      -5.241   9.025  12.666  0.00  0.00     0.022 C 
BRANCH  19  20
HETATM   20  C   UNK     0      -5.654  10.457  12.281  0.00  0.00     0.004 C 
BRANCH  20  21
HETATM   21  C   UNK     0      -5.924  10.811  10.806  0.00  0.00     0.000 C 
BRANCH  21  22
HETATM   22  C   UNK     0      -6.644  12.124  10.449  0.00  0.00     0.000 C 
HETATM   23  C   UNK     0      -7.113  13.074  11.566  0.00  0.00     0.000 C 
ENDBRANCH  21  22
ENDBRANCH  20  21
ENDBRANCH  19  20
ENDBRANCH   2  19
TORSDOF 4
ENDMDL
MODEL 8
REMARK VINA RESULT:      -5.2     25.237     29.360
REMARK  4 active torsions:
REMARK  status: ('A' for Active; 'I' for Inactive)
REMARK    1  A    between atoms: C_2  and  C_16 
REMARK    2  A    between atoms: C_16  and  C_17 
REMARK    3  A    between atoms: C_17  and  C_18 
REMARK    4  A    between atoms: C_18  and  C_19 
ROOT
HETATM    1  C   UNK     0       5.838  -9.935  -9.027  0.00  0.00    -0.026 A 
HETATM    2  C   UNK     0       4.510  -9.971  -8.242  0.00  0.00    -0.041 A 
HETATM    3  C   UNK     0       3.876 -11.334  -7.863  0.00  0.00     0.076 A 
HETATM    4  C   UNK     0       4.572 -12.644  -8.269  0.00  0.00     0.109 A 
HETATM    5  C   UNK     0       6.530 -11.250  -9.431  0.00  0.00     0.067 A 
HETATM    6  C   UNK     0       5.889 -12.602  -9.048  0.00  0.00     0.003 A 
HETATM    7  C   UNK     0       8.544 -12.541 -10.616  0.00  0.00    -0.030 A 
HETATM    8  C   UNK     0       7.903 -13.892 -10.233  0.00  0.00    -0.031 A 
HETATM    9  C   UNK     0       6.570 -13.911  -9.446  0.00  0.00    -0.028 A 
HETATM   10  C   UNK     0       5.922 -15.252  -9.058  0.00  0.00     0.026 A 
HETATM   11  C   UNK     0       6.600 -16.585  -9.454  0.00  0.00     0.005 A 
HETATM   12  C   UNK     0       7.933 -16.568 -10.242  0.00  0.00     0.005 A 
HETATM   13  C   UNK     0       8.588 -15.216 -10.634  0.00  0.00     0.026 A 
HETATM   14  C   UNK     0       5.951 -17.927  -9.066  0.00  0.00     0.000 C 
HETATM   15  O   UNK     0       3.943 -13.999  -7.893  0.00  0.00    -0.195 OA
HETATM   16  C   UNK     0       7.857 -11.221 -10.215  0.00  0.00    -0.022 A 
HETATM   17  C   UNK     0       9.869 -12.511 -11.399  0.00  0.00     0.030 C 
HETATM   18  O   UNK     0       7.170  -9.908  -9.814  0.00  0.00     0.000 OA
ENDROOT
BRANCH   2  19
HETATM   19  C   UNK     0       3.815  -8.657  -7.836  0.00  0.00     0.022 C 
BRANCH  19  20
HETATM   20  C   UNK     0       4.394  -7.803  -6.693  0.00  0.00     0.004 C 
BRANCH  20  21
HETATM   21  C   UNK     0       3.722  -7.817  -5.307  0.00  0.00     0.000 C 
BRANCH  21  22
HETATM   22  C   UNK     0       4.053  -6.718  -4.280  0.00  0.00     0.000 C 
HETATM   23  C   UNK     0       5.449  -6.067  -4.272  0.00  0.00     0.000 C 
ENDBRANCH  21  22
ENDBRANCH  20  21
ENDBRANCH  19  20
ENDBRANCH   2  19
TORSDOF 4
ENDMDL
MODEL 9
REMARK VINA RESULT:      -5.1     13.167     16.725
REMARK  4 active torsions:
REMARK  status: ('A' for Active; 'I' for Inactive)
REMARK    1  A    between atoms: C_2  and  C_16 
REMARK    2  A    between atoms: C_16  and  C_17 
REMARK    3  A    between atoms: C_17  and  C_18 
REMARK    4  A    between atoms: C_18  and  C_19 
ROOT
HETATM    1  C   UNK     0      -0.949  13.824   0.450  0.00  0.00    -0.026 A 
HETATM    2  C   UNK     0      -2.268  14.513   0.857  0.00  0.00    -0.041 A 
HETATM    3  C   UNK     0      -3.241  15.022  -0.237  0.00  0.00     0.076 A 
HETATM    4  C   UNK     0      -2.890  14.839  -1.723  0.00  0.00     0.109 A 
HETATM    5  C   UNK     0      -0.602  13.643  -1.040  0.00  0.00     0.067 A 
HETATM    6  C   UNK     0      -1.580  14.155  -2.121  0.00  0.00     0.003 A 
HETATM    7  C   UNK     0       1.054  12.779  -2.947  0.00  0.00    -0.030 A 
HETATM    8  C   UNK     0       0.077  13.290  -4.027  0.00  0.00    -0.031 A 
HETATM    9  C   UNK     0      -1.242  13.980  -3.601  0.00  0.00    -0.028 A 
HETATM   10  C   UNK     0      -2.224  14.493  -4.670  0.00  0.00     0.026 A 
HETATM   11  C   UNK     0      -1.895  14.323  -6.172  0.00  0.00     0.005 A 
HETATM   12  C   UNK     0      -0.576  13.633  -6.599  0.00  0.00     0.005 A 
HETATM   13  C   UNK     0       0.415  13.115  -5.523  0.00  0.00     0.026 A 
HETATM   14  C   UNK     0      -2.878  14.837  -7.241  0.00  0.00     0.000 C 
HETATM   15  O   UNK     0      -3.855  15.345  -2.811  0.00  0.00    -0.195 OA
HETATM   16  C   UNK     0       0.714  12.956  -1.455  0.00  0.00    -0.022 A 
HETATM   17  C   UNK     0       2.368  12.092  -3.360  0.00  0.00     0.030 C 
HETATM   18  O   UNK     0       0.371  13.134   0.032  0.00  0.00     0.000 OA
ENDROOT
BRANCH   2  19
HETATM   19  C   UNK     0      -2.618  14.694   2.346  0.00  0.00     0.022 C 
BRANCH  19  20
HETATM   20  C   UNK     0      -3.895  15.454   2.750  0.00  0.00     0.004 C 
BRANCH  20  21
HETATM   21  C   UNK     0      -4.534  15.206   4.129  0.00  0.00     0.000 C 
BRANCH  21  22
HETATM   22  C   UNK     0      -3.643  14.911   5.349  0.00  0.00     0.000 C 
HETATM   23  C   UNK     0      -4.268  14.362   6.645  0.00  0.00     0.000 C 
ENDBRANCH  21  22
ENDBRANCH  20  21
ENDBRANCH  19  20
ENDBRANCH   2  19
TORSDOF 4
ENDMDL
MODEL 10
REMARK VINA RESULT:      -5.0     17.397     20.303
REMARK  4 active torsions:
REMARK  status: ('A' for Active; 'I' for Inactive)
REMARK    1  A    between atoms: C_2  and  C_16 
REMARK    2  A    between atoms: C_16  and  C_17 
REMARK    3  A    between atoms: C_17  and  C_18 
REMARK    4  A    between atoms: C_18  and  C_19 
ROOT
HETATM    1  C   UNK     0     -14.754  11.310  -2.026  0.00  0.00    -0.026 A 
HETATM    2  C   UNK     0     -14.363  12.128  -0.777  0.00  0.00    -0.041 A 
HETATM    3  C   UNK     0     -15.348  12.231   0.415  0.00  0.00     0.076 A 
HETATM    4  C   UNK     0     -16.710  11.519   0.351  0.00  0.00     0.109 A 
HETATM    5  C   UNK     0     -16.119  10.599  -2.086  0.00  0.00     0.067 A 
HETATM    6  C   UNK     0     -17.092  10.709  -0.891  0.00  0.00     0.003 A 
HETATM    7  C   UNK     0     -17.883   9.072  -3.382  0.00  0.00    -0.030 A 
HETATM    8  C   UNK     0     -18.856   9.182  -2.188  0.00  0.00    -0.031 A 
HETATM    9  C   UNK     0     -18.448  10.006  -0.942  0.00  0.00    -0.028 A 
HETATM   10  C   UNK     0     -19.409  10.123   0.254  0.00  0.00     0.026 A 
HETATM   11  C   UNK     0     -20.786   9.417   0.216  0.00  0.00     0.005 A 
HETATM   12  C   UNK     0     -21.195   8.592  -1.029  0.00  0.00     0.005 A 
HETATM   13  C   UNK     0     -20.227   8.473  -2.237  0.00  0.00     0.026 A 
HETATM   14  C   UNK     0     -21.747   9.534   1.413  0.00  0.00     0.000 C 
HETATM   15  O   UNK     0     -17.689  11.620   1.535  0.00  0.00    -0.195 OA
HETATM   16  C   UNK     0     -16.517   9.781  -3.330  0.00  0.00    -0.022 A 
HETATM   17  C   UNK     0     -18.280   8.255  -4.625  0.00  0.00     0.030 C 
HETATM   18  O   UNK     0     -15.154  10.488  -3.275  0.00  0.00     0.000 OA
ENDROOT
BRANCH   2  19
HETATM   19  C   UNK     0     -12.999  12.840  -0.716  0.00  0.00     0.022 C 
BRANCH  19  20
HETATM   20  C   UNK     0     -12.865  14.184   0.024  0.00  0.00     0.004 C 
BRANCH  20  21
HETATM   21  C   UNK     0     -11.539  14.553   0.715  0.00  0.00     0.000 C 
BRANCH  21  22
HETATM   22  C   UNK     0     -10.212  13.967   0.198  0.00  0.00     0.000 C 
HETATM   23  C   UNK     0      -8.945  14.045   1.069  0.00  0.00     0.000 C 
ENDBRANCH  21  22
ENDBRANCH  20  21
ENDBRANCH  19  20
ENDBRANCH   2  19
TORSDOF 4
ENDMDL
