MODEL 1
REMARK VINA RESULT:      -5.8      0.000      0.000
REMARK  0 active torsions:
REMARK  status: ('A' for Active; 'I' for Inactive)
REMARK       I    between atoms: N_2  and  C_14 
ROOT
HETATM    1  O   UNK     0     -21.307   2.011  11.406  0.00  0.00    -0.154 OA
HETATM    2  N   UNK     0     -20.724   1.890   8.916  0.00  0.00    -0.283 N 
HETATM    3  N   UNK     0     -21.955   3.935   9.845  0.00  0.00    -0.053 NA
HETATM    4  C   UNK     0     -20.126   0.576   9.233  0.00  0.00     0.040 A 
HETATM    5  C   UNK     0     -20.799   2.579   7.609  0.00  0.00     0.040 A 
HETATM    6  C   UNK     0     -19.453  -0.375   8.322  0.00  0.00    -0.010 A 
HETATM    7  C   UNK     0     -20.293   2.121   6.297  0.00  0.00    -0.010 A 
HETATM    8  C   UNK     0     -19.214  -0.246   6.868  0.00  0.00    -0.003 A 
HETATM    9  C   UNK     0     -19.587   0.864   5.967  0.00  0.00    -0.003 A 
HETATM   10  C   UNK     0     -20.279   0.260  10.732  0.00  0.00     0.044 A 
HETATM   11  C   UNK     0     -21.516   3.933   7.752  0.00  0.00     0.044 A 
HETATM   12  C   UNK     0     -18.888  -1.707   8.847  0.00  0.00     0.028 A 
HETATM   13  C   UNK     0     -20.469   2.990   5.037  0.00  0.00     0.028 A 
HETATM   14  C   UNK     0     -21.329   2.612  10.056  0.00  0.00     0.271 C 
HETATM   15  C   UNK     0     -19.725  -1.065  11.291  0.00  0.00     0.007 A 
HETATM   16  C   UNK     0     -21.708   4.826   6.512  0.00  0.00     0.007 A 
HETATM   17  C   UNK     0     -19.025  -2.055  10.341  0.00  0.00     0.005 A 
HETATM   18  C   UNK     0     -21.181   4.351   5.144  0.00  0.00     0.005 A 
ENDROOT
TORSDOF 0
ENDMDL
MODEL 2
REMARK VINA RESULT:      -5.5     25.815     27.582
REMARK  0 active torsions:
REMARK  status: ('A' for Active; 'I' for Inactive)
REMARK       I    between atoms: N_2  and  C_14 
ROOT
HETATM    1  O   UNK     0       1.119  -6.154  -9.720  0.00  0.00    -0.154 OA
HETATM    2  N   UNK     0       0.405  -6.862  -7.365  0.00  0.00    -0.283 N 
HETATM    3  N   UNK     0      -1.200  -5.516  -8.840  0.00  0.00    -0.053 NA
HETATM    4  C   UNK     0       1.740  -7.490  -7.270  0.00  0.00     0.040 A 
HETATM    5  C   UNK     0      -0.673  -6.827  -6.354  0.00  0.00     0.040 A 
HETATM    6  C   UNK     0       2.327  -8.240  -6.138  0.00  0.00    -0.010 A 
HETATM    7  C   UNK     0      -0.681  -7.413  -4.996  0.00  0.00    -0.010 A 
HETATM    8  C   UNK     0       1.724  -8.546  -4.823  0.00  0.00    -0.003 A 
HETATM    9  C   UNK     0       0.386  -8.178  -4.315  0.00  0.00    -0.003 A 
HETATM   10  C   UNK     0       2.533  -7.274  -8.571  0.00  0.00     0.044 A 
HETATM   11  C   UNK     0      -1.894  -6.058  -6.890  0.00  0.00     0.044 A 
HETATM   12  C   UNK     0       3.748  -8.825  -6.230  0.00  0.00     0.028 A 
HETATM   13  C   UNK     0      -1.912  -7.269  -4.081  0.00  0.00     0.028 A 
HETATM   14  C   UNK     0       0.108  -6.177  -8.642  0.00  0.00     0.271 C 
HETATM   15  C   UNK     0       3.958  -7.846  -8.697  0.00  0.00     0.007 A 
HETATM   16  C   UNK     0      -3.141  -5.895  -6.001  0.00  0.00     0.007 A 
HETATM   17  C   UNK     0       4.569  -8.627  -7.518  0.00  0.00     0.005 A 
HETATM   18  C   UNK     0      -3.150  -6.505  -4.587  0.00  0.00     0.005 A 
ENDROOT
TORSDOF 0
ENDMDL
MODEL 3
REMARK VINA RESULT:      -5.5      2.077      3.587
REMARK  0 active torsions:
REMARK  status: ('A' for Active; 'I' for Inactive)
REMARK       I    between atoms: N_2  and  C_14 
ROOT
HETATM    1  O   UNK     0     -19.991   0.865   5.402  0.00  0.00    -0.154 OA
HETATM    2  N   UNK     0     -20.505   2.014   7.632  0.00  0.00    -0.283 N 
HETATM    3  N   UNK     0     -20.974   3.230   5.427  0.00  0.00    -0.053 NA
HETATM    4  C   UNK     0     -20.000   0.774   8.260  0.00  0.00     0.040 A 
HETATM    5  C   UNK     0     -21.023   3.235   8.286  0.00  0.00     0.040 A 
HETATM    6  C   UNK     0     -19.889   0.449   9.699  0.00  0.00    -0.010 A 
HETATM    7  C   UNK     0     -21.164   3.516   9.731  0.00  0.00    -0.010 A 
HETATM    8  C   UNK     0     -20.255   1.283  10.863  0.00  0.00    -0.003 A 
HETATM    9  C   UNK     0     -20.823   2.647  10.878  0.00  0.00    -0.003 A 
HETATM   10  C   UNK     0     -19.563  -0.236   7.185  0.00  0.00     0.044 A 
HETATM   11  C   UNK     0     -21.439   4.278   7.234  0.00  0.00     0.044 A 
HETATM   12  C   UNK     0     -19.332  -0.910  10.160  0.00  0.00     0.028 A 
HETATM   13  C   UNK     0     -21.732   4.862  10.222  0.00  0.00     0.028 A 
HETATM   14  C   UNK     0     -20.490   2.036   6.154  0.00  0.00     0.271 C 
HETATM   15  C   UNK     0     -19.001  -1.606   7.612  0.00  0.00     0.007 A 
HETATM   16  C   UNK     0     -22.010   5.633   7.690  0.00  0.00     0.007 A 
HETATM   17  C   UNK     0     -18.885  -1.944   9.111  0.00  0.00     0.005 A 
HETATM   18  C   UNK     0     -22.157   5.927   9.195  0.00  0.00     0.005 A 
ENDROOT
TORSDOF 0
ENDMDL
MODEL 4
REMARK VINA RESULT:      -5.4     25.946     27.820
REMARK  0 active torsions:
REMARK  status: ('A' for Active; 'I' for Inactive)
REMARK       I    between atoms: N_2  and  C_14 
ROOT
HETATM    1  O   UNK     0      -1.061  -5.701  -9.010  0.00  0.00    -0.154 OA
HETATM    2  N   UNK     0       0.532  -6.946  -7.438  0.00  0.00    -0.283 N 
HETATM    3  N   UNK     0       1.277  -6.364  -9.818  0.00  0.00    -0.053 NA
HETATM    4  C   UNK     0      -0.561  -6.865  -6.446  0.00  0.00     0.040 A 
HETATM    5  C   UNK     0       1.872  -7.555  -7.288  0.00  0.00     0.040 A 
HETATM    6  C   UNK     0      -0.586  -7.374  -5.058  0.00  0.00    -0.010 A 
HETATM    7  C   UNK     0       2.447  -8.234  -6.107  0.00  0.00    -0.010 A 
HETATM    8  C   UNK     0       0.477  -8.089  -4.319  0.00  0.00    -0.003 A 
HETATM    9  C   UNK     0       1.826  -8.472  -4.786  0.00  0.00    -0.003 A 
HETATM   10  C   UNK     0      -1.780  -6.139  -7.043  0.00  0.00     0.044 A 
HETATM   11  C   UNK     0       2.683  -7.405  -8.587  0.00  0.00     0.044 A 
HETATM   12  C   UNK     0      -1.831  -7.192  -4.171  0.00  0.00     0.028 A 
HETATM   13  C   UNK     0       3.875  -8.809  -6.145  0.00  0.00     0.028 A 
HETATM   14  C   UNK     0       0.249  -6.337  -8.756  0.00  0.00     0.271 C 
HETATM   15  C   UNK     0      -3.043  -5.939  -6.183  0.00  0.00     0.007 A 
HETATM   16  C   UNK     0       4.114  -7.968  -8.659  0.00  0.00     0.007 A 
HETATM   17  C   UNK     0      -3.068  -6.470  -4.737  0.00  0.00     0.005 A 
HETATM   18  C   UNK     0       4.715  -8.676  -7.429  0.00  0.00     0.005 A 
ENDROOT
TORSDOF 0
ENDMDL
MODEL 5
REMARK VINA RESULT:      -5.4     20.965     21.405
REMARK  0 active torsions:
REMARK  status: ('A' for Active; 'I' for Inactive)
REMARK       I    between atoms: N_2  and  C_14 
ROOT
HETATM    1  O   UNK     0       2.217   8.675   9.429  0.00  0.00    -0.154 OA
HETATM    2  N   UNK     0       0.209   7.435  10.424  0.00  0.00    -0.283 N 
HETATM    3  N   UNK     0       0.143   9.983  10.168  0.00  0.00    -0.053 NA
HETATM    4  C   UNK     0       1.007   6.208  10.220  0.00  0.00     0.040 A 
HETATM    5  C   UNK     0      -1.151   7.569  10.989  0.00  0.00     0.040 A 
HETATM    6  C   UNK     0       0.642   4.809  10.532  0.00  0.00    -0.010 A 
HETATM    7  C   UNK     0      -2.048   6.506  11.490  0.00  0.00    -0.010 A 
HETATM    8  C   UNK     0      -0.611   4.293  11.124  0.00  0.00    -0.003 A 
HETATM    9  C   UNK     0      -1.808   5.048  11.550  0.00  0.00    -0.003 A 
HETATM   10  C   UNK     0       2.374   6.548   9.599  0.00  0.00     0.044 A 
HETATM   11  C   UNK     0      -1.586   9.045  11.010  0.00  0.00     0.044 A 
HETATM   12  C   UNK     0       1.619   3.655  10.244  0.00  0.00     0.028 A 
HETATM   13  C   UNK     0      -3.443   6.848  12.047  0.00  0.00     0.028 A 
HETATM   14  C   UNK     0       0.857   8.698  10.007  0.00  0.00     0.271 C 
HETATM   15  C   UNK     0       3.376   5.417   9.298  0.00  0.00     0.007 A 
HETATM   16  C   UNK     0      -2.974   9.421  11.560  0.00  0.00     0.007 A 
HETATM   17  C   UNK     0       2.995   3.960   9.623  0.00  0.00     0.005 A 
HETATM   18  C   UNK     0      -3.909   8.314  12.082  0.00  0.00     0.005 A 
ENDROOT
TORSDOF 0
ENDMDL
MODEL 6
REMARK VINA RESULT:      -5.2     21.176     21.701
REMARK  0 active torsions:
REMARK  status: ('A' for Active; 'I' for Inactive)
REMARK       I    between atoms: N_2  and  C_14 
ROOT
HETATM    1  O   UNK     0      -0.213  11.316  10.857  0.00  0.00    -0.154 OA
HETATM    2  N   UNK     0      -0.095   8.762  10.711  0.00  0.00    -0.283 N 
HETATM    3  N   UNK     0       1.944  10.177  10.078  0.00  0.00    -0.053 NA
HETATM    4  C   UNK     0      -1.495   8.782  11.187  0.00  0.00     0.040 A 
HETATM    5  C   UNK     0       0.750   7.596  10.376  0.00  0.00     0.040 A 
HETATM    6  C   UNK     0      -2.396   7.638  11.445  0.00  0.00    -0.010 A 
HETATM    7  C   UNK     0       0.402   6.160  10.435  0.00  0.00    -0.010 A 
HETATM    8  C   UNK     0      -2.120   6.193  11.291  0.00  0.00    -0.003 A 
HETATM    9  C   UNK     0      -0.875   5.536  10.842  0.00  0.00    -0.003 A 
HETATM   10  C   UNK     0      -1.971  10.228  11.408  0.00  0.00     0.044 A 
HETATM   11  C   UNK     0       2.147   8.053   9.921  0.00  0.00     0.044 A 
HETATM   12  C   UNK     0      -3.836   7.863  11.943  0.00  0.00     0.028 A 
HETATM   13  C   UNK     0       1.430   5.082  10.041  0.00  0.00     0.028 A 
HETATM   14  C   UNK     0       0.545  10.086  10.549  0.00  0.00     0.271 C 
HETATM   15  C   UNK     0      -3.405  10.490  11.906  0.00  0.00     0.007 A 
HETATM   16  C   UNK     0       3.198   7.001   9.521  0.00  0.00     0.007 A 
HETATM   17  C   UNK     0      -4.344   9.298  12.174  0.00  0.00     0.005 A 
HETATM   18  C   UNK     0       2.837   5.505   9.581  0.00  0.00     0.005 A 
ENDROOT
TORSDOF 0
ENDMDL
MODEL 7
REMARK VINA RESULT:      -4.9     26.131     28.128
REMARK  0 active torsions:
REMARK  status: ('A' for Active; 'I' for Inactive)
REMARK       I    between atoms: N_2  and  C_14 
ROOT
HETATM    1  O   UNK     0       0.777  -6.621 -10.760  0.00  0.00    -0.154 OA
HETATM    2  N   UNK     0       0.777  -6.949  -8.220  0.00  0.00    -0.283 N 
HETATM    3  N   UNK     0       2.905  -7.408  -9.571  0.00  0.00    -0.053 NA
HETATM    4  C   UNK     0      -0.636  -6.520  -8.276  0.00  0.00     0.040 A 
HETATM    5  C   UNK     0       1.577  -7.339  -7.039  0.00  0.00     0.040 A 
HETATM    6  C   UNK     0      -1.601  -6.376  -7.164  0.00  0.00    -0.010 A 
HETATM    7  C   UNK     0       1.159  -7.397  -5.622  0.00  0.00    -0.010 A 
HETATM    8  C   UNK     0      -1.389  -6.625  -5.722  0.00  0.00    -0.003 A 
HETATM    9  C   UNK     0      -0.161  -7.079  -5.036  0.00  0.00    -0.003 A 
HETATM   10  C   UNK     0      -1.050  -6.210  -9.726  0.00  0.00     0.044 A 
HETATM   11  C   UNK     0       3.011  -7.713  -7.456  0.00  0.00     0.044 A 
HETATM   12  C   UNK     0      -3.045  -5.912  -7.426  0.00  0.00     0.028 A 
HETATM   13  C   UNK     0       2.148  -7.834  -4.524  0.00  0.00     0.028 A 
HETATM   14  C   UNK     0       1.486  -6.993  -9.517  0.00  0.00     0.271 C 
HETATM   15  C   UNK     0      -2.488  -5.743 -10.023  0.00  0.00     0.007 A 
HETATM   16  C   UNK     0       4.024  -8.153  -6.383  0.00  0.00     0.007 A 
HETATM   17  C   UNK     0      -3.492  -5.593  -8.864  0.00  0.00     0.005 A 
HETATM   18  C   UNK     0       3.589  -8.214  -4.907  0.00  0.00     0.005 A 
ENDROOT
TORSDOF 0
ENDMDL
MODEL 8
REMARK VINA RESULT:      -4.9     24.455     26.219
REMARK  0 active torsions:
REMARK  status: ('A' for Active; 'I' for Inactive)
REMARK       I    between atoms: N_2  and  C_14 
ROOT
HETATM    1  O   UNK     0      -3.998   8.235 -11.303  0.00  0.00    -0.154 OA
HETATM    2  N   UNK     0      -2.958   6.345  -9.923  0.00  0.00    -0.283 N 
HETATM    3  N   UNK     0      -5.106   5.926 -11.254  0.00  0.00    -0.053 NA
HETATM    4  C   UNK     0      -1.921   7.333  -9.557  0.00  0.00     0.040 A 
HETATM    5  C   UNK     0      -3.074   4.931  -9.505  0.00  0.00     0.040 A 
HETATM    6  C   UNK     0      -0.743   7.151  -8.682  0.00  0.00    -0.010 A 
HETATM    7  C   UNK     0      -2.180   4.157  -8.617  0.00  0.00    -0.010 A 
HETATM    8  C   UNK     0      -0.311   5.937  -7.957  0.00  0.00    -0.003 A 
HETATM    9  C   UNK     0      -0.950   4.605  -7.929  0.00  0.00    -0.003 A 
HETATM   10  C   UNK     0      -2.205   8.689 -10.229  0.00  0.00     0.044 A 
HETATM   11  C   UNK     0      -4.320   4.282 -10.134  0.00  0.00     0.044 A 
HETATM   12  C   UNK     0       0.233   8.313  -8.419  0.00  0.00     0.028 A 
HETATM   13  C   UNK     0      -2.471   2.679  -8.298  0.00  0.00     0.028 A 
HETATM   14  C   UNK     0      -4.021   6.836 -10.827  0.00  0.00     0.271 C 
HETATM   15  C   UNK     0      -1.249   9.872  -9.987  0.00  0.00     0.007 A 
HETATM   16  C   UNK     0      -4.640   2.805  -9.835  0.00  0.00     0.007 A 
HETATM   17  C   UNK     0      -0.021   9.682  -9.076  0.00  0.00     0.005 A 
HETATM   18  C   UNK     0      -3.709   1.998  -8.911  0.00  0.00     0.005 A 
ENDROOT
TORSDOF 0
ENDMDL
MODEL 9
REMARK VINA RESULT:      -4.9     17.764     18.330
REMARK  0 active torsions:
REMARK  status: ('A' for Active; 'I' for Inactive)
REMARK       I    between atoms: N_2  and  C_14 
ROOT
HETATM    1  O   UNK     0      -5.413   5.312  14.922  0.00  0.00    -0.154 OA
HETATM    2  N   UNK     0      -4.209   6.582  13.052  0.00  0.00    -0.283 N 
HETATM    3  N   UNK     0      -3.436   4.229  13.707  0.00  0.00    -0.053 NA
HETATM    4  C   UNK     0      -5.175   7.669  13.320  0.00  0.00     0.040 A 
HETATM    5  C   UNK     0      -3.118   6.541  12.055  0.00  0.00     0.040 A 
HETATM    6  C   UNK     0      -5.288   8.985  12.655  0.00  0.00    -0.010 A 
HETATM    7  C   UNK     0      -2.724   7.580  11.078  0.00  0.00    -0.010 A 
HETATM    8  C   UNK     0      -4.464   9.539  11.560  0.00  0.00    -0.003 A 
HETATM    9  C   UNK     0      -3.323   8.914  10.858  0.00  0.00    -0.003 A 
HETATM   10  C   UNK     0      -6.137   7.270  14.453  0.00  0.00     0.044 A 
HETATM   11  C   UNK     0      -2.363   5.202  12.133  0.00  0.00     0.044 A 
HETATM   12  C   UNK     0      -6.372   9.993  13.079  0.00  0.00     0.028 A 
HETATM   13  C   UNK     0      -1.547   7.349  10.112  0.00  0.00     0.028 A 
HETATM   14  C   UNK     0      -4.353   5.374  13.894  0.00  0.00     0.271 C 
HETATM   15  C   UNK     0      -7.233   8.255  14.902  0.00  0.00     0.007 A 
HETATM   16  C   UNK     0      -1.181   4.939  11.181  0.00  0.00     0.007 A 
HETATM   17  C   UNK     0      -7.351   9.626  14.209  0.00  0.00     0.005 A 
HETATM   18  C   UNK     0      -0.770   6.020  10.163  0.00  0.00     0.005 A 
ENDROOT
TORSDOF 0
ENDMDL
MODEL 10
REMARK VINA RESULT:      -4.9     24.851     25.899
REMARK  0 active torsions:
REMARK  status: ('A' for Active; 'I' for Inactive)
REMARK       I    between atoms: N_2  and  C_14 
ROOT
HETATM    1  O   UNK     0       0.071   5.807  -9.993  0.00  0.00    -0.154 OA
HETATM    2  N   UNK     0      -2.351   5.045 -10.327  0.00  0.00    -0.283 N 
HETATM    3  N   UNK     0      -1.660   7.429 -10.958  0.00  0.00    -0.053 NA
HETATM    4  C   UNK     0      -1.900   3.747  -9.783  0.00  0.00     0.040 A 
HETATM    5  C   UNK     0      -3.702   5.434 -10.787  0.00  0.00     0.040 A 
HETATM    6  C   UNK     0      -2.690   2.515  -9.562  0.00  0.00    -0.010 A 
HETATM    7  C   UNK     0      -4.935   4.619 -10.814  0.00  0.00    -0.010 A 
HETATM    8  C   UNK     0      -4.124   2.280  -9.832  0.00  0.00    -0.003 A 
HETATM    9  C   UNK     0      -5.123   3.216 -10.389  0.00  0.00    -0.003 A 
HETATM   10  C   UNK     0      -0.402   3.797  -9.435  0.00  0.00     0.044 A 
HETATM   11  C   UNK     0      -3.707   6.893 -11.277  0.00  0.00     0.044 A 
HETATM   12  C   UNK     0      -2.034   1.251  -8.979  0.00  0.00     0.028 A 
HETATM   13  C   UNK     0      -6.260   5.210 -11.334  0.00  0.00     0.028 A 
HETATM   14  C   UNK     0      -1.313   6.094 -10.426  0.00  0.00     0.271 C 
HETATM   15  C   UNK     0       0.286   2.549  -8.849  0.00  0.00     0.007 A 
HETATM   16  C   UNK     0      -5.014   7.514 -11.803  0.00  0.00     0.007 A 
HETATM   17  C   UNK     0      -0.537   1.267  -8.620  0.00  0.00     0.005 A 
HETATM   18  C   UNK     0      -6.300   6.666 -11.832  0.00  0.00     0.005 A 
ENDROOT
TORSDOF 0
ENDMDL
