MODEL 1
REMARK VINA RESULT:      -5.7      0.000      0.000
REMARK  9 active torsions:
REMARK  status: ('A' for Active; 'I' for Inactive)
REMARK    1  A    between atoms: C_3  and  C_21 
REMARK    2  A    between atoms: C_4  and  C_14 
REMARK    3  A    between atoms: C_7  and  N_9 
REMARK       I    between atoms: N_9  and  C_10 
REMARK    4  A    between atoms: C_10  and  C_13 
REMARK    5  A    between atoms: C_13  and  C_15 
REMARK    6  A    between atoms: C_13  and  N_20 
REMARK    7  A    between atoms: C_14  and  S_24 
REMARK    8  A    between atoms: N_20  and  O_35 
REMARK    9  A    between atoms: S_24  and  C_25 
ROOT
HETATM    1  C   UNK     0      -0.108  -4.467 -10.022  0.00  0.00     0.308 A 
HETATM    2  N   UNK     0      -1.514  -4.872 -10.021  0.00  0.00    -0.297 N 
HETATM    3  C   UNK     0      -2.584  -3.940 -10.729  0.00  0.00     0.121 A 
HETATM    4  C   UNK     0      -2.155  -2.646 -11.399  0.00  0.00    -0.002 A 
HETATM    5  C   UNK     0      -0.749  -2.242 -11.399  0.00  0.00     0.065 A 
HETATM    6  S   UNK     0       0.302  -3.110 -10.731  0.00  0.00    -0.194 SA
HETATM    7  C   UNK     0       0.259  -5.739  -9.235  0.00  0.00     0.125 A 
HETATM    8  C   UNK     0      -1.147  -6.144  -9.234  0.00  0.00     0.211 A 
HETATM    9  O   UNK     0      -1.575  -7.438  -8.564  0.00  0.00    -0.170 OA
ENDROOT
BRANCH   7  10
HETATM   10  N   UNK     0       1.310  -6.607  -8.566  0.00  0.00    -0.217 NA
HETATM   11  C   UNK     0       1.342  -6.692  -7.050  0.00  0.00     0.234 C 
HETATM   12  O   UNK     0       0.373  -5.948  -6.245  0.00  0.00    -0.167 OA
BRANCH  11  13
HETATM   13  C   UNK     0       2.393  -7.560  -6.381  0.00  0.00     0.165 C 
BRANCH  13  14
HETATM   14  C   UNK     0       3.417  -8.399  -7.254  0.00  0.00     0.091 A 
HETATM   15  C   UNK     0       3.125  -9.911  -7.284  0.00  0.00     0.108 A 
HETATM   16  S   UNK     0       4.214 -10.543  -8.171  0.00  0.00    -0.072 SA
HETATM   17  C   UNK     0       5.216  -9.407  -8.712  0.00  0.00     0.456 A 
HETATM   18  N   UNK     0       4.718  -8.068  -8.139  0.00  0.00    -0.229 NA
HETATM   19  N   UNK     0       6.435  -9.624  -9.627  0.00  0.00     0.656 N 
ENDBRANCH  13  14
BRANCH  13  20
HETATM   20  N   UNK     0       2.485  -7.641  -4.769  0.00  0.00    -0.126 NA
BRANCH  20  21
HETATM   21  O   UNK     0       3.835  -7.447  -4.051  0.00  0.00    -0.234 OA
HETATM   22  C   UNK     0       4.312  -6.039  -3.652  0.00  0.00     0.211 C 
ENDBRANCH  20  21
ENDBRANCH  13  20
ENDBRANCH  11  13
ENDBRANCH   7  10
BRANCH   3  23
HETATM   23  C   UNK     0      -4.063  -4.366 -10.728  0.00  0.00     0.227 C 
HETATM   24  O   UNK     0      -4.810  -4.837 -12.013  0.00  0.00    -0.643 OA
HETATM   25  O   UNK     0      -4.875  -4.329  -9.366  0.00  0.00    -0.643 OA
ENDBRANCH   3  23
BRANCH   4  26
HETATM   26  C   UNK     0      -3.281  -1.800 -12.067  0.00  0.00     0.089 C 
BRANCH  26  27
HETATM   27  S   UNK     0      -2.843  -0.546 -12.805  0.00  0.00    -0.071 SA
BRANCH  27  28
HETATM   28  C   UNK     0      -3.046   0.807 -12.145  0.00  0.00     0.190 A 
HETATM   29  N   UNK     0      -4.449   1.250 -11.689  0.00  0.00    -0.192 NA
HETATM   30  C   UNK     0      -4.652   2.603 -11.030  0.00  0.00     0.260 A 
HETATM   31  C   UNK     0      -3.424   3.579 -10.801  0.00  0.00     0.274 A 
HETATM   32  O   UNK     0      -6.055   3.046 -10.573  0.00  0.00    -0.165 OA
HETATM   33  N   UNK     0      -2.021   3.136 -11.258  0.00  0.00    -0.136 NA
HETATM   34  O   UNK     0      -3.627   4.932 -10.142  0.00  0.00    -0.164 OA
HETATM   35  N   UNK     0      -1.847   1.717 -11.942  0.00  0.00    -0.225 N 
HETATM   36  C   UNK     0      -0.445   1.273 -12.399  0.00  0.00     0.156 C 
ENDBRANCH  27  28
ENDBRANCH  26  27
ENDBRANCH   4  26
TORSDOF 9
ENDMDL
MODEL 2
REMARK VINA RESULT:      -5.6      9.515     14.106
REMARK  9 active torsions:
REMARK  status: ('A' for Active; 'I' for Inactive)
REMARK    1  A    between atoms: C_3  and  C_21 
REMARK    2  A    between atoms: C_4  and  C_14 
REMARK    3  A    between atoms: C_7  and  N_9 
REMARK       I    between atoms: N_9  and  C_10 
REMARK    4  A    between atoms: C_10  and  C_13 
REMARK    5  A    between atoms: C_13  and  C_15 
REMARK    6  A    between atoms: C_13  and  N_20 
REMARK    7  A    between atoms: C_14  and  S_24 
REMARK    8  A    between atoms: N_20  and  O_35 
REMARK    9  A    between atoms: S_24  and  C_25 
ROOT
HETATM    1  C   UNK     0       2.012   7.468  -7.868  0.00  0.00     0.308 A 
HETATM    2  N   UNK     0       0.642   7.960  -8.011  0.00  0.00    -0.297 N 
HETATM    3  C   UNK     0      -0.517   6.928  -8.338  0.00  0.00     0.121 A 
HETATM    4  C   UNK     0      -0.208   5.450  -8.502  0.00  0.00    -0.002 A 
HETATM    5  C   UNK     0       1.162   4.958  -8.359  0.00  0.00     0.065 A 
HETATM    6  S   UNK     0       2.296   5.918  -8.046  0.00  0.00    -0.194 SA
HETATM    7  C   UNK     0       2.498   8.902  -7.588  0.00  0.00     0.125 A 
HETATM    8  C   UNK     0       1.128   9.394  -7.730  0.00  0.00     0.211 A 
HETATM    9  O   UNK     0       0.819  10.872  -7.567  0.00  0.00    -0.170 OA
ENDROOT
BRANCH   7  10
HETATM   10  N   UNK     0       3.632   9.862  -7.275  0.00  0.00    -0.217 NA
HETATM   11  C   UNK     0       5.016   9.575  -7.830  0.00  0.00     0.234 C 
HETATM   12  O   UNK     0       5.254   8.391  -8.655  0.00  0.00    -0.167 OA
BRANCH  11  13
HETATM   13  C   UNK     0       6.151  10.536  -7.516  0.00  0.00     0.165 C 
BRANCH  13  14
HETATM   14  C   UNK     0       6.490  10.917  -6.015  0.00  0.00     0.091 A 
HETATM   15  C   UNK     0       7.954  10.653  -5.616  0.00  0.00     0.108 A 
HETATM   16  S   UNK     0       8.083  11.081  -4.142  0.00  0.00    -0.072 SA
HETATM   17  C   UNK     0       6.672  11.627  -3.598  0.00  0.00     0.456 A 
HETATM   18  N   UNK     0       5.676  11.525  -4.769  0.00  0.00    -0.229 NA
HETATM   19  N   UNK     0       6.378  12.151  -2.181  0.00  0.00     0.656 N 
ENDBRANCH  13  14
BRANCH  13  20
HETATM   20  N   UNK     0       7.029  11.184  -8.709  0.00  0.00    -0.126 NA
BRANCH  20  21
HETATM   21  O   UNK     0       7.087  10.509 -10.094  0.00  0.00    -0.234 OA
HETATM   22  C   UNK     0       6.318  11.108 -11.287  0.00  0.00     0.211 C 
ENDBRANCH  20  21
ENDBRANCH  13  20
ENDBRANCH  11  13
ENDBRANCH   7  10
BRANCH   3  23
HETATM   23  C   UNK     0      -1.959   7.446  -8.488  0.00  0.00     0.227 C 
HETATM   24  O   UNK     0      -3.090   7.109  -7.469  0.00  0.00    -0.643 OA
HETATM   25  O   UNK     0      -2.323   8.364  -9.729  0.00  0.00    -0.643 OA
ENDBRANCH   3  23
BRANCH   4  26
HETATM   26  C   UNK     0      -1.415   4.516  -8.822  0.00  0.00     0.089 C 
BRANCH  26  27
HETATM   27  S   UNK     0      -1.809   4.392 -10.284  0.00  0.00    -0.071 SA
BRANCH  27  28
HETATM   28  C   UNK     0      -3.280   4.269 -10.643  0.00  0.00     0.190 A 
HETATM   29  N   UNK     0      -4.150   5.529 -10.811  0.00  0.00    -0.192 NA
HETATM   30  C   UNK     0      -5.621   5.406 -11.170  0.00  0.00     0.260 A 
HETATM   31  C   UNK     0      -6.282   3.980 -11.377  0.00  0.00     0.274 A 
HETATM   32  O   UNK     0      -6.491   6.666 -11.339  0.00  0.00    -0.165 OA
HETATM   33  N   UNK     0      -5.412   2.721 -11.208  0.00  0.00    -0.136 NA
HETATM   34  O   UNK     0      -7.753   3.858 -11.736  0.00  0.00    -0.164 OA
HETATM   35  N   UNK     0      -3.881   2.888 -10.833  0.00  0.00    -0.225 N 
HETATM   36  C   UNK     0      -3.011   1.628 -10.665  0.00  0.00     0.156 C 
ENDBRANCH  27  28
ENDBRANCH  26  27
ENDBRANCH   4  26
TORSDOF 9
ENDMDL
MODEL 3
REMARK VINA RESULT:      -5.4     18.170     22.103
REMARK  9 active torsions:
REMARK  status: ('A' for Active; 'I' for Inactive)
REMARK    1  A    between atoms: C_3  and  C_21 
REMARK    2  A    between atoms: C_4  and  C_14 
REMARK    3  A    between atoms: C_7  and  N_9 
REMARK       I    between atoms: N_9  and  C_10 
REMARK    4  A    between atoms: C_10  and  C_13 
REMARK    5  A    between atoms: C_13  and  C_15 
REMARK    6  A    between atoms: C_13  and  N_20 
REMARK    7  A    between atoms: C_14  and  S_24 
REMARK    8  A    between atoms: N_20  and  O_35 
REMARK    9  A    between atoms: S_24  and  C_25 
ROOT
HETATM    1  C   UNK     0       2.111  12.915  -0.738  0.00  0.00     0.308 A 
HETATM    2  N   UNK     0       1.922  13.002  -2.186  0.00  0.00    -0.297 N 
HETATM    3  C   UNK     0       3.153  12.711  -3.142  0.00  0.00     0.121 A 
HETATM    4  C   UNK     0       4.508  12.346  -2.562  0.00  0.00    -0.002 A 
HETATM    5  C   UNK     0       4.697  12.258  -1.114  0.00  0.00     0.065 A 
HETATM    6  S   UNK     0       3.540  12.531  -0.169  0.00  0.00    -0.194 SA
HETATM    7  C   UNK     0       0.633  13.290  -0.522  0.00  0.00     0.125 A 
HETATM    8  C   UNK     0       0.444  13.377  -1.970  0.00  0.00     0.211 A 
HETATM    9  O   UNK     0      -0.912  13.742  -2.550  0.00  0.00    -0.170 OA
ENDROOT
BRANCH   7  10
HETATM   10  N   UNK     0      -0.525  13.563   0.423  0.00  0.00    -0.217 NA
HETATM   11  C   UNK     0      -0.546  14.863   1.207  0.00  0.00     0.234 C 
HETATM   12  O   UNK     0       0.533  15.839   1.054  0.00  0.00    -0.167 OA
BRANCH  11  13
HETATM   13  C   UNK     0      -1.703  15.136   2.152  0.00  0.00     0.165 C 
BRANCH  13  14
HETATM   14  C   UNK     0      -3.131  15.523   1.584  0.00  0.00     0.091 A 
HETATM   15  C   UNK     0      -3.098  16.160   0.182  0.00  0.00     0.108 A 
HETATM   16  S   UNK     0      -4.562  16.460  -0.190  0.00  0.00    -0.072 SA
HETATM   17  C   UNK     0      -5.541  16.005   1.002  0.00  0.00     0.456 A 
HETATM   18  N   UNK     0      -4.647  15.419   2.110  0.00  0.00    -0.229 NA
HETATM   19  N   UNK     0      -7.075  16.132   1.024  0.00  0.00     0.656 N 
ENDBRANCH  13  14
BRANCH  13  20
HETATM   20  N   UNK     0      -1.495  15.035   3.753  0.00  0.00    -0.126 NA
BRANCH  20  21
HETATM   21  O   UNK     0      -2.450  15.771   4.713  0.00  0.00    -0.234 OA
HETATM   22  C   UNK     0      -2.264  17.272   5.002  0.00  0.00     0.211 C 
ENDBRANCH  20  21
ENDBRANCH  13  20
ENDBRANCH  11  13
ENDBRANCH   7  10
BRANCH   3  23
HETATM   23  C   UNK     0       2.954  12.803  -4.666  0.00  0.00     0.227 C 
HETATM   24  O   UNK     0       3.270  14.091  -5.485  0.00  0.00    -0.643 OA
HETATM   25  O   UNK     0       2.405  11.538  -5.449  0.00  0.00    -0.643 OA
ENDBRANCH   3  23
BRANCH   4  26
HETATM   26  C   UNK     0       5.655  12.078  -3.584  0.00  0.00     0.089 C 
BRANCH  26  27
HETATM   27  S   UNK     0       6.874  11.337  -3.060  0.00  0.00    -0.071 SA
BRANCH  27  28
HETATM   28  C   UNK     0       8.232  12.013  -3.124  0.00  0.00     0.190 A 
HETATM   29  N   UNK     0       8.693  12.948  -1.991  0.00  0.00    -0.192 NA
HETATM   30  C   UNK     0      10.051  13.624  -2.055  0.00  0.00     0.260 A 
HETATM   31  C   UNK     0      11.015  13.377  -3.289  0.00  0.00     0.274 A 
HETATM   32  O   UNK     0      10.512  14.559  -0.922  0.00  0.00    -0.165 OA
HETATM   33  N   UNK     0      10.554  12.442  -4.423  0.00  0.00    -0.136 NA
HETATM   34  O   UNK     0      12.374  14.053  -3.353  0.00  0.00    -0.164 OA
HETATM   35  N   UNK     0       9.129  11.754  -4.322  0.00  0.00    -0.225 N 
HETATM   36  C   UNK     0       8.669  10.818  -5.455  0.00  0.00     0.156 C 
ENDBRANCH  27  28
ENDBRANCH  26  27
ENDBRANCH   4  26
TORSDOF 9
ENDMDL
MODEL 4
REMARK VINA RESULT:      -5.2      9.279     14.537
REMARK  9 active torsions:
REMARK  status: ('A' for Active; 'I' for Inactive)
REMARK    1  A    between atoms: C_3  and  C_21 
REMARK    2  A    between atoms: C_4  and  C_14 
REMARK    3  A    between atoms: C_7  and  N_9 
REMARK       I    between atoms: N_9  and  C_10 
REMARK    4  A    between atoms: C_10  and  C_13 
REMARK    5  A    between atoms: C_13  and  C_15 
REMARK    6  A    between atoms: C_13  and  N_20 
REMARK    7  A    between atoms: C_14  and  S_24 
REMARK    8  A    between atoms: N_20  and  O_35 
REMARK    9  A    between atoms: S_24  and  C_25 
ROOT
HETATM    1  C   UNK     0       0.688   7.768  -8.581  0.00  0.00     0.308 A 
HETATM    2  N   UNK     0       0.533   9.185  -8.909  0.00  0.00    -0.297 N 
HETATM    3  C   UNK     0       1.793  10.142  -8.808  0.00  0.00     0.121 A 
HETATM    4  C   UNK     0       3.143   9.595  -8.377  0.00  0.00    -0.002 A 
HETATM    5  C   UNK     0       3.298   8.177  -8.049  0.00  0.00     0.065 A 
HETATM    6  S   UNK     0       2.112   7.233  -8.134  0.00  0.00    -0.194 SA
HETATM    7  C   UNK     0      -0.804   7.534  -8.885  0.00  0.00     0.125 A 
HETATM    8  C   UNK     0      -0.959   8.951  -9.213  0.00  0.00     0.211 A 
HETATM    9  O   UNK     0      -2.308   9.499  -9.644  0.00  0.00    -0.170 OA
ENDROOT
BRANCH   7  10
HETATM   10  N   UNK     0      -1.990   6.590  -8.970  0.00  0.00    -0.217 NA
HETATM   11  C   UNK     0      -1.908   5.239  -8.281  0.00  0.00     0.234 C 
HETATM   12  O   UNK     0      -0.704   4.853  -7.544  0.00  0.00    -0.167 OA
BRANCH  11  13
HETATM   13  C   UNK     0      -3.094   4.294  -8.366  0.00  0.00     0.165 C 
BRANCH  13  14
HETATM   14  C   UNK     0      -3.483   3.615  -9.745  0.00  0.00     0.091 A 
HETATM   15  C   UNK     0      -2.966   2.173  -9.903  0.00  0.00     0.108 A 
HETATM   16  S   UNK     0      -3.441   1.694 -11.287  0.00  0.00    -0.072 SA
HETATM   17  C   UNK     0      -4.275   2.856 -12.020  0.00  0.00     0.456 A 
HETATM   18  N   UNK     0      -4.302   4.057 -11.056  0.00  0.00    -0.229 NA
HETATM   19  N   UNK     0      -4.921   2.779 -13.416  0.00  0.00     0.656 N 
ENDBRANCH  13  14
BRANCH  13  20
HETATM   20  N   UNK     0      -3.978   3.967  -7.052  0.00  0.00    -0.126 NA
BRANCH  20  21
HETATM   21  O   UNK     0      -3.440   3.016  -5.965  0.00  0.00    -0.234 OA
HETATM   22  C   UNK     0      -4.181   1.707  -5.636  0.00  0.00     0.211 C 
ENDBRANCH  20  21
ENDBRANCH  13  20
ENDBRANCH  11  13
ENDBRANCH   7  10
BRANCH   3  23
HETATM   23  C   UNK     0       1.630  11.633  -9.154  0.00  0.00     0.227 C 
HETATM   24  O   UNK     0       0.992  12.665  -8.174  0.00  0.00    -0.643 OA
HETATM   25  O   UNK     0       2.128  12.156 -10.565  0.00  0.00    -0.643 OA
ENDBRANCH   3  23
BRANCH   4  26
HETATM   26  C   UNK     0       4.321  10.614  -8.309  0.00  0.00     0.089 C 
BRANCH  26  27
HETATM   27  S   UNK     0       5.666  10.070  -7.863  0.00  0.00    -0.071 SA
BRANCH  27  28
HETATM   28  C   UNK     0       6.213  10.476  -6.505  0.00  0.00     0.190 A 
HETATM   29  N   UNK     0       5.306  11.176  -5.476  0.00  0.00    -0.192 NA
HETATM   30  C   UNK     0       5.853  11.583  -4.119  0.00  0.00     0.260 A 
HETATM   31  C   UNK     0       7.365  11.292  -3.741  0.00  0.00     0.274 A 
HETATM   32  O   UNK     0       4.946  12.283  -3.089  0.00  0.00    -0.165 OA
HETATM   33  N   UNK     0       8.272  10.592  -4.770  0.00  0.00    -0.136 NA
HETATM   34  O   UNK     0       7.911  11.698  -2.383  0.00  0.00    -0.164 OA
HETATM   35  N   UNK     0       7.666  10.182  -6.177  0.00  0.00    -0.225 N 
HETATM   36  C   UNK     0       8.573   9.482  -7.206  0.00  0.00     0.156 C 
ENDBRANCH  27  28
ENDBRANCH  26  27
ENDBRANCH   4  26
TORSDOF 9
ENDMDL
MODEL 5
REMARK VINA RESULT:      -5.1      5.974      8.408
REMARK  9 active torsions:
REMARK  status: ('A' for Active; 'I' for Inactive)
REMARK    1  A    between atoms: C_3  and  C_21 
REMARK    2  A    between atoms: C_4  and  C_14 
REMARK    3  A    between atoms: C_7  and  N_9 
REMARK       I    between atoms: N_9  and  C_10 
REMARK    4  A    between atoms: C_10  and  C_13 
REMARK    5  A    between atoms: C_13  and  C_15 
REMARK    6  A    between atoms: C_13  and  N_20 
REMARK    7  A    between atoms: C_14  and  S_24 
REMARK    8  A    between atoms: N_20  and  O_35 
REMARK    9  A    between atoms: S_24  and  C_25 
ROOT
HETATM    1  C   UNK     0      -4.781  -5.894 -10.176  0.00  0.00     0.308 A 
HETATM    2  N   UNK     0      -4.617  -6.881 -11.244  0.00  0.00    -0.297 N 
HETATM    3  C   UNK     0      -5.163  -6.544 -12.694  0.00  0.00     0.121 A 
HETATM    4  C   UNK     0      -5.847  -5.217 -12.971  0.00  0.00    -0.002 A 
HETATM    5  C   UNK     0      -6.011  -4.230 -11.903  0.00  0.00     0.065 A 
HETATM    6  S   UNK     0      -5.500  -4.519 -10.503  0.00  0.00    -0.194 SA
HETATM    7  C   UNK     0      -4.079  -6.845  -9.190  0.00  0.00     0.125 A 
HETATM    8  C   UNK     0      -3.915  -7.832 -10.258  0.00  0.00     0.211 A 
HETATM    9  O   UNK     0      -3.232  -9.160  -9.981  0.00  0.00    -0.170 OA
ENDROOT
BRANCH   7  10
HETATM   10  N   UNK     0      -3.568  -7.134  -7.789  0.00  0.00    -0.217 NA
HETATM   11  C   UNK     0      -2.296  -6.455  -7.313  0.00  0.00     0.234 C 
HETATM   12  O   UNK     0      -1.572  -5.536  -8.191  0.00  0.00    -0.167 OA
BRANCH  11  13
HETATM   13  C   UNK     0      -1.785  -6.745  -5.912  0.00  0.00     0.165 C 
BRANCH  13  14
HETATM   14  C   UNK     0      -2.743  -7.385  -4.823  0.00  0.00     0.091 A 
HETATM   15  C   UNK     0      -2.141  -8.600  -4.094  0.00  0.00     0.108 A 
HETATM   16  S   UNK     0      -3.209  -9.073  -3.090  0.00  0.00    -0.072 SA
HETATM   17  C   UNK     0      -4.513  -8.137  -3.186  0.00  0.00     0.456 A 
HETATM   18  N   UNK     0      -4.221  -7.082  -4.269  0.00  0.00    -0.229 NA
HETATM   19  N   UNK     0      -5.801  -8.274  -2.354  0.00  0.00     0.656 N 
ENDBRANCH  13  14
BRANCH  13  20
HETATM   20  N   UNK     0      -0.256  -6.404  -5.511  0.00  0.00    -0.126 NA
BRANCH  20  21
HETATM   21  O   UNK     0       0.883  -7.378  -5.871  0.00  0.00    -0.234 OA
HETATM   22  C   UNK     0       1.350  -7.530  -7.330  0.00  0.00     0.211 C 
ENDBRANCH  20  21
ENDBRANCH  13  20
ENDBRANCH  11  13
ENDBRANCH   7  10
BRANCH   3  23
HETATM   23  C   UNK     0      -4.991  -7.583 -13.818  0.00  0.00     0.227 C 
HETATM   24  O   UNK     0      -5.953  -8.795 -14.006  0.00  0.00    -0.643 OA
HETATM   25  O   UNK     0      -3.785  -7.423 -14.836  0.00  0.00    -0.643 OA
ENDBRANCH   3  23
BRANCH   4  26
HETATM   26  C   UNK     0      -6.349  -4.979 -14.428  0.00  0.00     0.089 C 
BRANCH  26  27
HETATM   27  S   UNK     0      -7.831  -4.697 -14.599  0.00  0.00    -0.071 SA
BRANCH  27  28
HETATM   28  C   UNK     0      -8.675  -5.654 -15.423  0.00  0.00     0.190 A 
HETATM   29  N   UNK     0      -8.783  -7.138 -15.026  0.00  0.00    -0.192 NA
HETATM   30  C   UNK     0      -9.627  -8.096 -15.849  0.00  0.00     0.260 A 
HETATM   31  C   UNK     0     -10.408  -7.582 -17.129  0.00  0.00     0.274 A 
HETATM   32  O   UNK     0      -9.736  -9.580 -15.452  0.00  0.00    -0.165 OA
HETATM   33  N   UNK     0     -10.299  -6.098 -17.526  0.00  0.00    -0.136 NA
HETATM   34  O   UNK     0     -11.252  -8.539 -17.953  0.00  0.00    -0.164 OA
HETATM   35  N   UNK     0      -9.409  -5.128 -16.643  0.00  0.00    -0.225 N 
HETATM   36  C   UNK     0      -9.301  -3.644 -17.040  0.00  0.00     0.156 C 
ENDBRANCH  27  28
ENDBRANCH  26  27
ENDBRANCH   4  26
TORSDOF 9
ENDMDL
MODEL 6
REMARK VINA RESULT:      -5.1      8.402     13.920
REMARK  9 active torsions:
REMARK  status: ('A' for Active; 'I' for Inactive)
REMARK    1  A    between atoms: C_3  and  C_21 
REMARK    2  A    between atoms: C_4  and  C_14 
REMARK    3  A    between atoms: C_7  and  N_9 
REMARK       I    between atoms: N_9  and  C_10 
REMARK    4  A    between atoms: C_10  and  C_13 
REMARK    5  A    between atoms: C_13  and  C_15 
REMARK    6  A    between atoms: C_13  and  N_20 
REMARK    7  A    between atoms: C_14  and  S_24 
REMARK    8  A    between atoms: N_20  and  O_35 
REMARK    9  A    between atoms: S_24  and  C_25 
ROOT
HETATM    1  C   UNK     0       0.403   6.136  -8.320  0.00  0.00     0.308 A 
HETATM    2  N   UNK     0       0.123   7.566  -8.189  0.00  0.00    -0.297 N 
HETATM    3  C   UNK     0       1.328   8.568  -7.948  0.00  0.00     0.121 A 
HETATM    4  C   UNK     0       2.753   8.050  -7.855  0.00  0.00    -0.002 A 
HETATM    5  C   UNK     0       3.032   6.620  -7.985  0.00  0.00     0.065 A 
HETATM    6  S   UNK     0       1.902   5.633  -8.216  0.00  0.00    -0.194 SA
HETATM    7  C   UNK     0      -1.100   5.860  -8.511  0.00  0.00     0.125 A 
HETATM    8  C   UNK     0      -1.380   7.290  -8.380  0.00  0.00     0.211 A 
HETATM    9  O   UNK     0      -2.805   7.807  -8.474  0.00  0.00    -0.170 OA
ENDROOT
BRANCH   7  10
HETATM   10  N   UNK     0      -2.230   4.872  -8.742  0.00  0.00    -0.217 NA
HETATM   11  C   UNK     0      -2.175   3.957  -9.953  0.00  0.00     0.234 C 
HETATM   12  O   UNK     0      -1.048   4.027 -10.884  0.00  0.00    -0.167 OA
BRANCH  11  13
HETATM   13  C   UNK     0      -3.305   2.969 -10.184  0.00  0.00     0.165 C 
BRANCH  13  14
HETATM   14  C   UNK     0      -4.084   2.947 -11.565  0.00  0.00     0.091 A 
HETATM   15  C   UNK     0      -3.255   2.409 -12.745  0.00  0.00     0.108 A 
HETATM   16  S   UNK     0      -4.174   2.467 -13.980  0.00  0.00    -0.072 SA
HETATM   17  C   UNK     0      -5.614   3.054 -13.571  0.00  0.00     0.456 A 
HETATM   18  N   UNK     0      -5.558   3.354 -12.062  0.00  0.00    -0.229 NA
HETATM   19  N   UNK     0      -6.813   3.271 -14.512  0.00  0.00     0.656 N 
ENDBRANCH  13  14
BRANCH  13  20
HETATM   20  N   UNK     0      -3.731   1.925  -9.025  0.00  0.00    -0.126 NA
BRANCH  20  21
HETATM   21  O   UNK     0      -2.667   1.320  -8.088  0.00  0.00    -0.234 OA
HETATM   22  C   UNK     0      -1.342   0.779  -8.656  0.00  0.00     0.211 C 
ENDBRANCH  20  21
ENDBRANCH  13  20
ENDBRANCH  11  13
ENDBRANCH   7  10
BRANCH   3  23
HETATM   23  C   UNK     0       1.033  10.073  -7.811  0.00  0.00     0.227 C 
HETATM   24  O   UNK     0       0.729  10.992  -9.034  0.00  0.00    -0.643 OA
HETATM   25  O   UNK     0       1.037  10.730  -6.368  0.00  0.00    -0.643 OA
ENDBRANCH   3  23
BRANCH   4  26
HETATM   26  C   UNK     0       3.868   9.114  -7.617  0.00  0.00     0.089 C 
BRANCH  26  27
HETATM   27  S   UNK     0       5.020   9.124  -8.606  0.00  0.00    -0.071 SA
BRANCH  27  28
HETATM   28  C   UNK     0       6.297   9.863  -8.244  0.00  0.00     0.190 A 
HETATM   29  N   UNK     0       6.234  11.270  -7.619  0.00  0.00    -0.192 NA
HETATM   30  C   UNK     0       7.510  12.009  -7.257  0.00  0.00     0.260 A 
HETATM   31  C   UNK     0       8.926  11.344  -7.517  0.00  0.00     0.274 A 
HETATM   32  O   UNK     0       7.448  13.415  -6.632  0.00  0.00    -0.165 OA
HETATM   33  N   UNK     0       8.989   9.938  -8.142  0.00  0.00    -0.136 NA
HETATM   34  O   UNK     0      10.202  12.083  -7.155  0.00  0.00    -0.164 OA
HETATM   35  N   UNK     0       7.636   9.197  -8.507  0.00  0.00    -0.225 N 
HETATM   36  C   UNK     0       7.698   7.791  -9.132  0.00  0.00     0.156 C 
ENDBRANCH  27  28
ENDBRANCH  26  27
ENDBRANCH   4  26
TORSDOF 9
ENDMDL
MODEL 7
REMARK VINA RESULT:      -5.1      9.416     13.868
REMARK  9 active torsions:
REMARK  status: ('A' for Active; 'I' for Inactive)
REMARK    1  A    between atoms: C_3  and  C_21 
REMARK    2  A    between atoms: C_4  and  C_14 
REMARK    3  A    between atoms: C_7  and  N_9 
REMARK       I    between atoms: N_9  and  C_10 
REMARK    4  A    between atoms: C_10  and  C_13 
REMARK    5  A    between atoms: C_13  and  C_15 
REMARK    6  A    between atoms: C_13  and  N_20 
REMARK    7  A    between atoms: C_14  and  S_24 
REMARK    8  A    between atoms: N_20  and  O_35 
REMARK    9  A    between atoms: S_24  and  C_25 
ROOT
HETATM    1  C   UNK     0       1.781   7.525  -8.762  0.00  0.00     0.308 A 
HETATM    2  N   UNK     0       3.100   7.418  -9.387  0.00  0.00    -0.297 N 
HETATM    3  C   UNK     0       4.244   8.423  -8.947  0.00  0.00     0.121 A 
HETATM    4  C   UNK     0       3.977   9.481  -7.892  0.00  0.00    -0.002 A 
HETATM    5  C   UNK     0       2.658   9.589  -7.267  0.00  0.00     0.065 A 
HETATM    6  S   UNK     0       1.538   8.643  -7.664  0.00  0.00    -0.194 SA
HETATM    7  C   UNK     0       1.280   6.346  -9.616  0.00  0.00     0.125 A 
HETATM    8  C   UNK     0       2.598   6.239 -10.242  0.00  0.00     0.211 A 
HETATM    9  O   UNK     0       2.866   5.180 -11.297  0.00  0.00    -0.170 OA
ENDROOT
BRANCH   7  10
HETATM   10  N   UNK     0       0.160   5.400 -10.014  0.00  0.00    -0.217 NA
HETATM   11  C   UNK     0      -0.477   4.523  -8.950  0.00  0.00     0.234 C 
HETATM   12  O   UNK     0      -0.019   4.589  -7.562  0.00  0.00    -0.167 OA
BRANCH  11  13
HETATM   13  C   UNK     0      -1.597   3.578  -9.347  0.00  0.00     0.165 C 
BRANCH  13  14
HETATM   14  C   UNK     0      -1.279   2.076  -9.743  0.00  0.00     0.091 A 
HETATM   15  C   UNK     0       0.187   1.829 -10.144  0.00  0.00     0.108 A 
HETATM   16  S   UNK     0       0.294   0.332 -10.489  0.00  0.00    -0.072 SA
HETATM   17  C   UNK     0      -1.134  -0.383 -10.302  0.00  0.00     0.456 A 
HETATM   18  N   UNK     0      -2.117   0.707  -9.836  0.00  0.00    -0.229 NA
HETATM   19  N   UNK     0      -1.451  -1.870 -10.544  0.00  0.00     0.656 N 
ENDBRANCH  13  14
BRANCH  13  20
HETATM   20  N   UNK     0      -3.131   4.088  -9.372  0.00  0.00    -0.126 NA
BRANCH  20  21
HETATM   21  O   UNK     0      -4.104   3.697  -8.243  0.00  0.00    -0.234 OA
HETATM   22  C   UNK     0      -3.636   3.687  -6.776  0.00  0.00     0.211 C 
ENDBRANCH  20  21
ENDBRANCH  13  20
ENDBRANCH  11  13
ENDBRANCH   7  10
BRANCH   3  23
HETATM   23  C   UNK     0       5.632   8.309  -9.605  0.00  0.00     0.227 C 
HETATM   24  O   UNK     0       6.669   7.212  -9.213  0.00  0.00    -0.643 OA
HETATM   25  O   UNK     0       6.037   9.348 -10.732  0.00  0.00    -0.643 OA
ENDBRANCH   3  23
BRANCH   4  26
HETATM   26  C   UNK     0       5.166  10.422  -7.528  0.00  0.00     0.089 C 
BRANCH  26  27
HETATM   27  S   UNK     0       4.814  11.729  -6.840  0.00  0.00    -0.071 SA
BRANCH  27  28
HETATM   28  C   UNK     0       5.021  11.853  -5.341  0.00  0.00     0.190 A 
HETATM   29  N   UNK     0       6.371  11.475  -4.705  0.00  0.00    -0.192 NA
HETATM   30  C   UNK     0       6.578  11.598  -3.205  0.00  0.00     0.260 A 
HETATM   31  C   UNK     0       5.406  12.119  -2.272  0.00  0.00     0.274 A 
HETATM   32  O   UNK     0       7.929  11.220  -2.569  0.00  0.00    -0.165 OA
HETATM   33  N   UNK     0       4.056  12.497  -2.908  0.00  0.00    -0.136 NA
HETATM   34  O   UNK     0       5.613  12.243  -0.773  0.00  0.00    -0.164 OA
HETATM   35  N   UNK     0       3.877  12.355  -4.477  0.00  0.00    -0.225 N 
HETATM   36  C   UNK     0       2.526  12.733  -5.113  0.00  0.00     0.156 C 
ENDBRANCH  27  28
ENDBRANCH  26  27
ENDBRANCH   4  26
TORSDOF 9
ENDMDL
MODEL 8
REMARK VINA RESULT:      -4.9     18.853     21.884
REMARK  9 active torsions:
REMARK  status: ('A' for Active; 'I' for Inactive)
REMARK    1  A    between atoms: C_3  and  C_21 
REMARK    2  A    between atoms: C_4  and  C_14 
REMARK    3  A    between atoms: C_7  and  N_9 
REMARK       I    between atoms: N_9  and  C_10 
REMARK    4  A    between atoms: C_10  and  C_13 
REMARK    5  A    between atoms: C_13  and  C_15 
REMARK    6  A    between atoms: C_13  and  N_20 
REMARK    7  A    between atoms: C_14  and  S_24 
REMARK    8  A    between atoms: N_20  and  O_35 
REMARK    9  A    between atoms: S_24  and  C_25 
ROOT
HETATM    1  C   UNK     0       4.988  12.956  -1.209  0.00  0.00     0.308 A 
HETATM    2  N   UNK     0       5.384  12.470  -2.531  0.00  0.00    -0.297 N 
HETATM    3  C   UNK     0       6.922  12.453  -2.916  0.00  0.00     0.121 A 
HETATM    4  C   UNK     0       7.969  12.934  -1.928  0.00  0.00    -0.002 A 
HETATM    5  C   UNK     0       7.574  13.420  -0.606  0.00  0.00     0.065 A 
HETATM    6  S   UNK     0       6.110  13.451  -0.203  0.00  0.00    -0.194 SA
HETATM    7  C   UNK     0       3.511  12.691  -1.553  0.00  0.00     0.125 A 
HETATM    8  C   UNK     0       3.907  12.205  -2.875  0.00  0.00     0.211 A 
HETATM    9  O   UNK     0       2.859  11.724  -3.864  0.00  0.00    -0.170 OA
ENDROOT
BRANCH   7  10
HETATM   10  N   UNK     0       2.047  12.722  -1.150  0.00  0.00    -0.217 NA
HETATM   11  C   UNK     0       1.458  14.012  -0.607  0.00  0.00     0.234 C 
HETATM   12  O   UNK     0       2.289  15.209  -0.474  0.00  0.00    -0.167 OA
BRANCH  11  13
HETATM   13  C   UNK     0      -0.006  14.043  -0.204  0.00  0.00     0.165 C 
BRANCH  13  14
HETATM   14  C   UNK     0      -0.456  14.759   1.137  0.00  0.00     0.091 A 
HETATM   15  C   UNK     0      -1.833  14.307   1.659  0.00  0.00     0.108 A 
HETATM   16  S   UNK     0      -2.087  15.105   2.951  0.00  0.00    -0.072 SA
HETATM   17  C   UNK     0      -0.847  16.083   3.252  0.00  0.00     0.456 A 
HETATM   18  N   UNK     0       0.173  15.866   2.119  0.00  0.00    -0.229 NA
HETATM   19  N   UNK     0      -0.710  17.046   4.445  0.00  0.00     0.656 N 
ENDBRANCH  13  14
BRANCH  13  20
HETATM   20  N   UNK     0      -1.128  13.345  -1.137  0.00  0.00    -0.126 NA
BRANCH  20  21
HETATM   21  O   UNK     0      -1.539  13.986  -2.477  0.00  0.00    -0.234 OA
HETATM   22  C   UNK     0      -0.704  13.743  -3.748  0.00  0.00     0.211 C 
ENDBRANCH  20  21
ENDBRANCH  13  20
ENDBRANCH  11  13
ENDBRANCH   7  10
BRANCH   3  23
HETATM   23  C   UNK     0       7.338  11.941  -4.308  0.00  0.00     0.227 C 
HETATM   24  O   UNK     0       8.012  10.553  -4.533  0.00  0.00    -0.643 OA
HETATM   25  O   UNK     0       7.075  12.856  -5.575  0.00  0.00    -0.643 OA
ENDBRANCH   3  23
BRANCH   4  26
HETATM   26  C   UNK     0       9.454  12.878  -2.400  0.00  0.00     0.089 C 
BRANCH  26  27
HETATM   27  S   UNK     0      10.055  14.175  -2.913  0.00  0.00    -0.071 SA
BRANCH  27  28
HETATM   28  C   UNK     0       9.994  14.479  -4.399  0.00  0.00     0.190 A 
HETATM   29  N   UNK     0      10.934  13.758  -5.383  0.00  0.00    -0.192 NA
HETATM   30  C   UNK     0      10.874  14.063  -6.869  0.00  0.00     0.260 A 
HETATM   31  C   UNK     0       9.842  15.128  -7.431  0.00  0.00     0.274 A 
HETATM   32  O   UNK     0      11.814  13.341  -7.853  0.00  0.00    -0.165 OA
HETATM   33  N   UNK     0       8.902  15.849  -6.447  0.00  0.00    -0.136 NA
HETATM   34  O   UNK     0       9.782  15.432  -8.917  0.00  0.00    -0.164 OA
HETATM   35  N   UNK     0       8.994  15.505  -4.902  0.00  0.00    -0.225 N 
HETATM   36  C   UNK     0       8.054  16.227  -3.918  0.00  0.00     0.156 C 
ENDBRANCH  27  28
ENDBRANCH  26  27
ENDBRANCH   4  26
TORSDOF 9
ENDMDL
MODEL 9
REMARK VINA RESULT:      -4.9     17.937     21.765
REMARK  9 active torsions:
REMARK  status: ('A' for Active; 'I' for Inactive)
REMARK    1  A    between atoms: C_3  and  C_21 
REMARK    2  A    between atoms: C_4  and  C_14 
REMARK    3  A    between atoms: C_7  and  N_9 
REMARK       I    between atoms: N_9  and  C_10 
REMARK    4  A    between atoms: C_10  and  C_13 
REMARK    5  A    between atoms: C_13  and  C_15 
REMARK    6  A    between atoms: C_13  and  N_20 
REMARK    7  A    between atoms: C_14  and  S_24 
REMARK    8  A    between atoms: N_20  and  O_35 
REMARK    9  A    between atoms: S_24  and  C_25 
ROOT
HETATM    1  C   UNK     0       4.873  12.006  -2.371  0.00  0.00     0.308 A 
HETATM    2  N   UNK     0       4.797  11.871  -3.825  0.00  0.00    -0.297 N 
HETATM    3  C   UNK     0       6.120  11.555  -4.639  0.00  0.00     0.121 A 
HETATM    4  C   UNK     0       7.447  11.394  -3.919  0.00  0.00    -0.002 A 
HETATM    5  C   UNK     0       7.523  11.528  -2.465  0.00  0.00     0.065 A 
HETATM    6  S   UNK     0       6.276  11.832  -1.653  0.00  0.00    -0.194 SA
HETATM    7  C   UNK     0       3.358  12.279  -2.317  0.00  0.00     0.125 A 
HETATM    8  C   UNK     0       3.282  12.144  -3.772  0.00  0.00     0.211 A 
HETATM    9  O   UNK     0       1.954  12.305  -4.491  0.00  0.00    -0.170 OA
ENDROOT
BRANCH   7  10
HETATM   10  N   UNK     0       2.110  12.582  -1.505  0.00  0.00    -0.217 NA
HETATM   11  C   UNK     0       2.037  13.882  -0.723  0.00  0.00     0.234 C 
HETATM   12  O   UNK     0       3.152  14.828  -0.750  0.00  0.00    -0.167 OA
BRANCH  11  13
HETATM   13  C   UNK     0       0.789  14.185   0.089  0.00  0.00     0.165 C 
BRANCH  13  14
HETATM   14  C   UNK     0       0.509  15.654   0.615  0.00  0.00     0.091 A 
HETATM   15  C   UNK     0      -0.271  16.538  -0.376  0.00  0.00     0.108 A 
HETATM   16  S   UNK     0      -0.441  17.907   0.309  0.00  0.00    -0.072 SA
HETATM   17  C   UNK     0       0.246  17.888   1.762  0.00  0.00     0.456 A 
HETATM   18  N   UNK     0       0.840  16.480   1.954  0.00  0.00    -0.229 NA
HETATM   19  N   UNK     0       0.297  19.055   2.765  0.00  0.00     0.656 N 
ENDBRANCH  13  14
BRANCH  13  20
HETATM   20  N   UNK     0      -0.272  13.013   0.428  0.00  0.00    -0.126 NA
BRANCH  20  21
HETATM   21  O   UNK     0      -1.514  12.801  -0.460  0.00  0.00    -0.234 OA
HETATM   22  C   UNK     0      -2.764  13.682  -0.280  0.00  0.00     0.211 C 
ENDBRANCH  20  21
ENDBRANCH  13  20
ENDBRANCH  11  13
ENDBRANCH   7  10
BRANCH   3  23
HETATM   23  C   UNK     0       6.040  11.412  -6.171  0.00  0.00     0.227 C 
HETATM   24  O   UNK     0       5.646  10.080  -6.878  0.00  0.00    -0.643 OA
HETATM   25  O   UNK     0       6.370  12.669  -7.079  0.00  0.00    -0.643 OA
ENDBRANCH   3  23
BRANCH   4  26
HETATM   26  C   UNK     0       8.691  11.083  -4.807  0.00  0.00     0.089 C 
BRANCH  26  27
HETATM   27  S   UNK     0       9.538  12.271  -5.230  0.00  0.00    -0.071 SA
BRANCH  27  28
HETATM   28  C   UNK     0       9.944  13.296  -4.186  0.00  0.00     0.190 A 
HETATM   29  N   UNK     0      11.080  12.992  -3.192  0.00  0.00    -0.192 NA
HETATM   30  C   UNK     0      11.486  14.017  -2.149  0.00  0.00     0.260 A 
HETATM   31  C   UNK     0      10.746  15.418  -2.067  0.00  0.00     0.274 A 
HETATM   32  O   UNK     0      12.622  13.713  -1.154  0.00  0.00    -0.165 OA
HETATM   33  N   UNK     0       9.610  15.722  -3.061  0.00  0.00    -0.136 NA
HETATM   34  O   UNK     0      11.152  16.443  -1.023  0.00  0.00    -0.164 OA
HETATM   35  N   UNK     0       9.214  14.627  -4.137  0.00  0.00    -0.225 N 
HETATM   36  C   UNK     0       8.078  14.932  -5.131  0.00  0.00     0.156 C 
ENDBRANCH  27  28
ENDBRANCH  26  27
ENDBRANCH   4  26
TORSDOF 9
ENDMDL
MODEL 10
REMARK VINA RESULT:      -4.9     17.967     22.347
REMARK  9 active torsions:
REMARK  status: ('A' for Active; 'I' for Inactive)
REMARK    1  A    between atoms: C_3  and  C_21 
REMARK    2  A    between atoms: C_4  and  C_14 
REMARK    3  A    between atoms: C_7  and  N_9 
REMARK       I    between atoms: N_9  and  C_10 
REMARK    4  A    between atoms: C_10  and  C_13 
REMARK    5  A    between atoms: C_13  and  C_15 
REMARK    6  A    between atoms: C_13  and  N_20 
REMARK    7  A    between atoms: C_14  and  S_24 
REMARK    8  A    between atoms: N_20  and  O_35 
REMARK    9  A    between atoms: S_24  and  C_25 
ROOT
HETATM    1  C   UNK     0       1.891  13.170  -1.047  0.00  0.00     0.308 A 
HETATM    2  N   UNK     0       1.754  13.079  -2.501  0.00  0.00    -0.297 N 
HETATM    3  C   UNK     0       3.020  12.687  -3.370  0.00  0.00     0.121 A 
HETATM    4  C   UNK     0       4.356  12.408  -2.704  0.00  0.00    -0.002 A 
HETATM    5  C   UNK     0       4.493  12.499  -1.250  0.00  0.00     0.065 A 
HETATM    6  S   UNK     0       3.301  12.873  -0.386  0.00  0.00    -0.194 SA
HETATM    7  C   UNK     0       0.404  13.554  -0.931  0.00  0.00     0.125 A 
HETATM    8  C   UNK     0       0.267  13.463  -2.384  0.00  0.00     0.211 A 
HETATM    9  O   UNK     0      -1.069  13.741  -3.051  0.00  0.00    -0.170 OA
ENDROOT
BRANCH   7  10
HETATM   10  N   UNK     0      -0.788  13.927  -0.067  0.00  0.00    -0.217 NA
HETATM   11  C   UNK     0      -0.629  15.018   0.978  0.00  0.00     0.234 C 
HETATM   12  O   UNK     0       0.654  15.699   1.150  0.00  0.00    -0.167 OA
BRANCH  11  13
HETATM   13  C   UNK     0      -1.821  15.392   1.842  0.00  0.00     0.165 C 
BRANCH  13  14
HETATM   14  C   UNK     0      -1.628  16.292   3.132  0.00  0.00     0.091 A 
HETATM   15  C   UNK     0      -2.738  17.339   3.339  0.00  0.00     0.108 A 
HETATM   16  S   UNK     0      -2.375  18.103   4.626  0.00  0.00    -0.072 SA
HETATM   17  C   UNK     0      -1.008  17.528   5.246  0.00  0.00     0.456 A 
HETATM   18  N   UNK     0      -0.541  16.396   4.312  0.00  0.00    -0.229 NA
HETATM   19  N   UNK     0      -0.306  18.018   6.526  0.00  0.00     0.656 N 
ENDBRANCH  13  14
BRANCH  13  20
HETATM   20  N   UNK     0      -3.305  14.876   1.458  0.00  0.00    -0.126 NA
BRANCH  20  21
HETATM   21  O   UNK     0      -4.242  15.755   0.607  0.00  0.00    -0.234 OA
HETATM   22  C   UNK     0      -5.693  16.010   1.053  0.00  0.00     0.211 C 
ENDBRANCH  20  21
ENDBRANCH  13  20
ENDBRANCH  11  13
ENDBRANCH   7  10
BRANCH   3  23
HETATM   23  C   UNK     0       2.876  12.591  -4.901  0.00  0.00     0.227 C 
HETATM   24  O   UNK     0       3.176  13.786  -5.856  0.00  0.00    -0.643 OA
HETATM   25  O   UNK     0       2.403  11.222  -5.545  0.00  0.00    -0.643 OA
ENDBRANCH   3  23
BRANCH   4  26
HETATM   26  C   UNK     0       5.541  12.030  -3.644  0.00  0.00     0.089 C 
BRANCH  26  27
HETATM   27  S   UNK     0       6.729  11.338  -2.998  0.00  0.00    -0.071 SA
BRANCH  27  28
HETATM   28  C   UNK     0       8.098  11.989  -3.085  0.00  0.00     0.190 A 
HETATM   29  N   UNK     0       8.561  12.980  -2.001  0.00  0.00    -0.192 NA
HETATM   30  C   UNK     0       9.931  13.631  -2.087  0.00  0.00     0.260 A 
HETATM   31  C   UNK     0      10.904  13.299  -3.294  0.00  0.00     0.274 A 
HETATM   32  O   UNK     0      10.394  14.621  -1.003  0.00  0.00    -0.165 OA
HETATM   33  N   UNK     0      10.441  12.308  -4.378  0.00  0.00    -0.136 NA
HETATM   34  O   UNK     0      12.273  13.950  -3.381  0.00  0.00    -0.164 OA
HETATM   35  N   UNK     0       9.004  11.649  -4.255  0.00  0.00    -0.225 N 
HETATM   36  C   UNK     0       8.541  10.658  -5.339  0.00  0.00     0.156 C 
ENDBRANCH  27  28
ENDBRANCH  26  27
ENDBRANCH   4  26
TORSDOF 9
ENDMDL
