MODEL 1
REMARK VINA RESULT:      -5.3      0.000      0.000
REMARK  1 active torsions:
REMARK  status: ('A' for Active; 'I' for Inactive)
REMARK    1  A    between atoms: N_4  and  C_11 
ROOT
HETATM    1 Cl   UNK     0     -22.113   3.638  13.032  0.00  0.00    -0.091 Cl
HETATM    2  O   UNK     0     -20.665   2.613   5.402  0.00  0.00    -0.171 OA
HETATM    3  O   UNK     0     -18.554  -1.812   7.085  0.00  0.00    -0.171 OA
HETATM    4  N   UNK     0     -20.904   2.477   7.995  0.00  0.00    -0.295 N 
HETATM    5  N   UNK     0     -19.495  -0.477   9.119  0.00  0.00    -0.307 N 
HETATM    6  C   UNK     0     -20.801   1.950   9.438  0.00  0.00     0.059 A 
HETATM    7  C   UNK     0     -20.174   0.636   9.939  0.00  0.00     0.052 A 
HETATM    8  C   UNK     0     -19.680   0.472   6.518  0.00  0.00     0.091 A 
HETATM    9  C   UNK     0     -20.405   1.819   6.695  0.00  0.00     0.201 A 
HETATM   10  C   UNK     0     -19.275  -0.549   7.596  0.00  0.00     0.198 A 
HETATM   11  C   UNK     0     -21.467   2.988  10.465  0.00  0.00     0.079 A 
HETATM   12  C   UNK     0     -20.169   0.268  11.500  0.00  0.00     0.050 A 
HETATM   13  C   UNK     0     -18.966  -1.675   9.929  0.00  0.00     0.132 C 
HETATM   14  C   UNK     0     -21.479   2.653  12.033  0.00  0.00     0.020 A 
HETATM   15  C   UNK     0     -20.826   1.283  12.555  0.00  0.00     0.040 A 
ENDROOT
BRANCH   4  16
HETATM   16  C   UNK     0     -21.597   3.842   7.829  0.00  0.00     0.021 A 
HETATM   17  C   UNK     0     -23.109   3.909   7.544  0.00  0.00     0.040 A 
HETATM   18  C   UNK     0     -23.802   5.274   7.378  0.00  0.00     0.006 A 
HETATM   19  C   UNK     0     -22.984   6.572   7.498  0.00  0.00     0.001 A 
HETATM   20  C   UNK     0     -21.471   6.506   7.783  0.00  0.00     0.006 A 
HETATM   21  C   UNK     0     -20.779   5.141   7.948  0.00  0.00     0.040 A 
ENDBRANCH   4  16
TORSDOF 1
ENDMDL
MODEL 2
REMARK VINA RESULT:      -5.0     25.252     26.116
REMARK  1 active torsions:
REMARK  status: ('A' for Active; 'I' for Inactive)
REMARK    1  A    between atoms: N_4  and  C_11 
ROOT
HETATM    1 Cl   UNK     0      -1.722  10.356  -9.815  0.00  0.00    -0.091 Cl
HETATM    2  O   UNK     0      -7.359   5.417 -12.094  0.00  0.00    -0.171 OA
HETATM    3  O   UNK     0      -4.182   1.892 -10.008  0.00  0.00    -0.171 OA
HETATM    4  N   UNK     0      -5.242   6.615 -11.154  0.00  0.00    -0.295 N 
HETATM    5  N   UNK     0      -3.120   4.262  -9.762  0.00  0.00    -0.307 N 
HETATM    6  C   UNK     0      -3.876   6.834 -10.478  0.00  0.00     0.059 A 
HETATM    7  C   UNK     0      -2.932   5.787  -9.858  0.00  0.00     0.052 A 
HETATM    8  C   UNK     0      -5.582   3.867 -10.981  0.00  0.00     0.091 A 
HETATM    9  C   UNK     0      -6.001   5.294 -11.378  0.00  0.00     0.201 A 
HETATM   10  C   UNK     0      -4.300   3.407 -10.261  0.00  0.00     0.198 A 
HETATM   11  C   UNK     0      -3.492   8.392 -10.478  0.00  0.00     0.079 A 
HETATM   12  C   UNK     0      -1.538   6.225  -9.196  0.00  0.00     0.050 A 
HETATM   13  C   UNK     0      -1.979   3.489  -9.075  0.00  0.00     0.132 C 
HETATM   14  C   UNK     0      -2.106   8.865  -9.824  0.00  0.00     0.020 A 
HETATM   15  C   UNK     0      -1.122   7.774  -9.178  0.00  0.00     0.040 A 
ENDROOT
BRANCH   4  16
HETATM   16  C   UNK     0      -5.941   7.884 -11.676  0.00  0.00     0.021 A 
HETATM   17  C   UNK     0      -6.724   8.787 -10.705  0.00  0.00     0.040 A 
HETATM   18  C   UNK     0      -7.423  10.056 -11.227  0.00  0.00     0.006 A 
HETATM   19  C   UNK     0      -7.339  10.422 -12.719  0.00  0.00     0.001 A 
HETATM   20  C   UNK     0      -6.556   9.519 -13.691  0.00  0.00     0.006 A 
HETATM   21  C   UNK     0      -5.857   8.251 -13.169  0.00  0.00     0.040 A 
ENDBRANCH   4  16
TORSDOF 1
ENDMDL
MODEL 3
REMARK VINA RESULT:      -4.9      2.154      2.838
REMARK  1 active torsions:
REMARK  status: ('A' for Active; 'I' for Inactive)
REMARK    1  A    between atoms: N_4  and  C_11 
ROOT
HETATM    1 Cl   UNK     0     -22.433   6.771  10.051  0.00  0.00    -0.091 Cl
HETATM    2  O   UNK     0     -20.699   1.766   4.279  0.00  0.00    -0.171 OA
HETATM    3  O   UNK     0     -19.390  -1.304   8.245  0.00  0.00    -0.171 OA
HETATM    4  N   UNK     0     -21.112   3.032   6.521  0.00  0.00    -0.295 N 
HETATM    5  N   UNK     0     -20.238   0.983   9.169  0.00  0.00    -0.307 N 
HETATM    6  C   UNK     0     -21.178   3.332   8.030  0.00  0.00     0.059 A 
HETATM    7  C   UNK     0     -20.789   2.420   9.209  0.00  0.00     0.052 A 
HETATM    8  C   UNK     0     -20.119   0.442   6.449  0.00  0.00     0.091 A 
HETATM    9  C   UNK     0     -20.641   1.746   5.818  0.00  0.00     0.201 A 
HETATM   10  C   UNK     0     -19.940   0.103   7.941  0.00  0.00     0.198 A 
HETATM   11  C   UNK     0     -21.738   4.814   8.286  0.00  0.00     0.079 A 
HETATM   12  C   UNK     0     -20.933   2.926  10.724  0.00  0.00     0.050 A 
HETATM   13  C   UNK     0     -19.947   0.341  10.538  0.00  0.00     0.132 C 
HETATM   14  C   UNK     0     -21.896   5.352   9.789  0.00  0.00     0.020 A 
HETATM   15  C   UNK     0     -21.491   4.402  11.017  0.00  0.00     0.040 A 
ENDROOT
BRANCH   4  16
HETATM   16  C   UNK     0     -21.579   4.168   5.593  0.00  0.00     0.021 A 
HETATM   17  C   UNK     0     -20.543   5.087   4.918  0.00  0.00     0.040 A 
HETATM   18  C   UNK     0     -21.010   6.224   3.990  0.00  0.00     0.006 A 
HETATM   19  C   UNK     0     -22.513   6.441   3.736  0.00  0.00     0.001 A 
HETATM   20  C   UNK     0     -23.549   5.522   4.411  0.00  0.00     0.006 A 
HETATM   21  C   UNK     0     -23.082   4.387   5.338  0.00  0.00     0.040 A 
ENDBRANCH   4  16
TORSDOF 1
ENDMDL
MODEL 4
REMARK VINA RESULT:      -4.8      2.018      5.402
REMARK  1 active torsions:
REMARK  status: ('A' for Active; 'I' for Inactive)
REMARK    1  A    between atoms: N_4  and  C_11 
ROOT
HETATM    1 Cl   UNK     0     -24.490   3.145  11.452  0.00  0.00    -0.091 Cl
HETATM    2  O   UNK     0     -18.617  -1.607   9.378  0.00  0.00    -0.171 OA
HETATM    3  O   UNK     0     -19.241   0.728   4.793  0.00  0.00    -0.171 OA
HETATM    4  N   UNK     0     -20.543   0.142   9.558  0.00  0.00    -0.295 N 
HETATM    5  N   UNK     0     -20.960   1.702   6.497  0.00  0.00    -0.307 N 
HETATM    6  C   UNK     0     -21.550   1.240   9.169  0.00  0.00     0.059 A 
HETATM    7  C   UNK     0     -21.735   1.934   7.807  0.00  0.00     0.052 A 
HETATM    8  C   UNK     0     -19.145  -0.278   7.198  0.00  0.00     0.091 A 
HETATM    9  C   UNK     0     -19.473  -0.534   8.681  0.00  0.00     0.201 A 
HETATM   10  C   UNK     0     -19.807   0.716   6.226  0.00  0.00     0.198 A 
HETATM   11  C   UNK     0     -22.470   1.630  10.424  0.00  0.00     0.079 A 
HETATM   12  C   UNK     0     -22.853   3.066   7.605  0.00  0.00     0.050 A 
HETATM   13  C   UNK     0     -21.394   2.567   5.300  0.00  0.00     0.132 C 
HETATM   14  C   UNK     0     -23.598   2.758  10.258  0.00  0.00     0.020 A 
HETATM   15  C   UNK     0     -23.792   3.482   8.838  0.00  0.00     0.040 A 
ENDROOT
BRANCH   4  16
HETATM   16  C   UNK     0     -20.616  -0.345  11.017  0.00  0.00     0.021 A 
HETATM   17  C   UNK     0     -21.421  -1.611  11.368  0.00  0.00     0.040 A 
HETATM   18  C   UNK     0     -21.494  -2.098  12.826  0.00  0.00     0.006 A 
HETATM   19  C   UNK     0     -20.762  -1.320  13.935  0.00  0.00     0.001 A 
HETATM   20  C   UNK     0     -19.956  -0.054  13.584  0.00  0.00     0.006 A 
HETATM   21  C   UNK     0     -19.884   0.432  12.126  0.00  0.00     0.040 A 
ENDBRANCH   4  16
TORSDOF 1
ENDMDL
MODEL 5
REMARK VINA RESULT:      -4.8     25.286     27.503
REMARK  1 active torsions:
REMARK  status: ('A' for Active; 'I' for Inactive)
REMARK    1  A    between atoms: N_4  and  C_11 
ROOT
HETATM    1 Cl   UNK     0       0.135   7.699 -12.855  0.00  0.00    -0.091 Cl
HETATM    2  O   UNK     0      -3.857   2.449  -8.628  0.00  0.00    -0.171 OA
HETATM    3  O   UNK     0      -7.756   3.940 -11.701  0.00  0.00    -0.171 OA
HETATM    4  N   UNK     0      -2.998   4.268 -10.288  0.00  0.00    -0.295 N 
HETATM    5  N   UNK     0      -5.601   5.264 -12.339  0.00  0.00    -0.307 N 
HETATM    6  C   UNK     0      -2.984   5.312 -11.418  0.00  0.00     0.059 A 
HETATM    7  C   UNK     0      -4.142   5.756 -12.332  0.00  0.00     0.052 A 
HETATM    8  C   UNK     0      -5.627   3.381 -10.300  0.00  0.00     0.091 A 
HETATM    9  C   UNK     0      -4.174   3.408  -9.790  0.00  0.00     0.201 A 
HETATM   10  C   UNK     0      -6.262   4.206 -11.435  0.00  0.00     0.198 A 
HETATM   11  C   UNK     0      -1.522   5.955 -11.573  0.00  0.00     0.079 A 
HETATM   12  C   UNK     0      -3.919   6.871 -13.462  0.00  0.00     0.050 A 
HETATM   13  C   UNK     0      -6.521   5.914 -13.389  0.00  0.00     0.132 C 
HETATM   14  C   UNK     0      -1.262   7.073 -12.694  0.00  0.00     0.020 A 
HETATM   15  C   UNK     0      -2.469   7.535 -13.645  0.00  0.00     0.040 A 
ENDROOT
BRANCH   4  16
HETATM   16  C   UNK     0      -1.659   4.055  -9.557  0.00  0.00     0.021 A 
HETATM   17  C   UNK     0      -0.713   2.922  -9.998  0.00  0.00     0.040 A 
HETATM   18  C   UNK     0       0.626   2.709  -9.268  0.00  0.00     0.006 A 
HETATM   19  C   UNK     0       1.018   3.628  -8.097  0.00  0.00     0.001 A 
HETATM   20  C   UNK     0       0.072   4.761  -7.656  0.00  0.00     0.006 A 
HETATM   21  C   UNK     0      -1.266   4.974  -8.386  0.00  0.00     0.040 A 
ENDBRANCH   4  16
TORSDOF 1
ENDMDL
MODEL 6
REMARK VINA RESULT:      -4.6     25.565     27.210
REMARK  1 active torsions:
REMARK  status: ('A' for Active; 'I' for Inactive)
REMARK    1  A    between atoms: N_4  and  C_11 
ROOT
HETATM    1 Cl   UNK     0      -1.285  13.988  -7.144  0.00  0.00    -0.091 Cl
HETATM    2  O   UNK     0       2.516  12.465  -0.465  0.00  0.00    -0.171 OA
HETATM    3  O   UNK     0      -1.904  14.156   1.650  0.00  0.00    -0.171 OA
HETATM    4  N   UNK     0       0.851  13.124  -2.361  0.00  0.00    -0.295 N 
HETATM    5  N   UNK     0      -2.100  14.253  -0.950  0.00  0.00    -0.307 N 
HETATM    6  C   UNK     0      -0.422  13.622  -3.068  0.00  0.00     0.059 A 
HETATM    7  C   UNK     0      -1.736  14.124  -2.440  0.00  0.00     0.052 A 
HETATM    8  C   UNK     0       0.197  13.355   0.325  0.00  0.00     0.091 A 
HETATM    9  C   UNK     0       1.127  13.005  -0.851  0.00  0.00     0.201 A 
HETATM   10  C   UNK     0      -1.239  13.910   0.281  0.00  0.00     0.198 A 
HETATM   11  C   UNK     0      -0.241  13.564  -4.661  0.00  0.00     0.079 A 
HETATM   12  C   UNK     0      -2.958  14.604  -3.361  0.00  0.00     0.050 A 
HETATM   13  C   UNK     0      -3.509  14.795  -0.650  0.00  0.00     0.132 C 
HETATM   14  C   UNK     0      -1.443  14.037  -5.613  0.00  0.00     0.020 A 
HETATM   15  C   UNK     0      -2.812  14.560  -4.958  0.00  0.00     0.040 A 
ENDROOT
BRANCH   4  16
HETATM   16  C   UNK     0       2.002  12.686  -3.286  0.00  0.00     0.021 A 
HETATM   17  C   UNK     0       2.062  11.239  -3.810  0.00  0.00     0.040 A 
HETATM   18  C   UNK     0       3.213  10.802  -4.735  0.00  0.00     0.006 A 
HETATM   19  C   UNK     0       4.303  11.812  -5.137  0.00  0.00     0.001 A 
HETATM   20  C   UNK     0       4.243  13.260  -4.613  0.00  0.00     0.006 A 
HETATM   21  C   UNK     0       3.093  13.696  -3.689  0.00  0.00     0.040 A 
ENDBRANCH   4  16
TORSDOF 1
ENDMDL
MODEL 7
REMARK VINA RESULT:      -4.6     23.764     26.513
REMARK  1 active torsions:
REMARK  status: ('A' for Active; 'I' for Inactive)
REMARK    1  A    between atoms: N_4  and  C_11 
ROOT
HETATM    1 Cl   UNK     0       0.595 -11.908  -1.517  0.00  0.00    -0.091 Cl
HETATM    2  O   UNK     0      -3.672  -6.773  -5.616  0.00  0.00    -0.171 OA
HETATM    3  O   UNK     0       0.972  -5.430  -7.485  0.00  0.00    -0.171 OA
HETATM    4  N   UNK     0      -1.836  -8.260  -4.512  0.00  0.00    -0.295 N 
HETATM    5  N   UNK     0       1.264  -7.364  -5.760  0.00  0.00    -0.307 N 
HETATM    6  C   UNK     0      -0.456  -8.848  -4.166  0.00  0.00     0.059 A 
HETATM    7  C   UNK     0       0.924  -8.449  -4.721  0.00  0.00     0.052 A 
HETATM    8  C   UNK     0      -1.225  -6.305  -6.382  0.00  0.00     0.091 A 
HETATM    9  C   UNK     0      -2.179  -7.129  -5.498  0.00  0.00     0.201 A 
HETATM   10  C   UNK     0       0.308  -6.410  -6.499  0.00  0.00     0.198 A 
HETATM   11  C   UNK     0      -0.598 -10.018  -3.078  0.00  0.00     0.079 A 
HETATM   12  C   UNK     0       2.257  -9.192  -4.227  0.00  0.00     0.050 A 
HETATM   13  C   UNK     0       2.757  -7.213  -6.104  0.00  0.00     0.132 C 
HETATM   14  C   UNK     0       0.714 -10.783  -2.561  0.00  0.00     0.020 A 
HETATM   15  C   UNK     0       2.152 -10.367  -3.140  0.00  0.00     0.040 A 
ENDROOT
BRANCH   4  16
HETATM   16  C   UNK     0      -3.033  -8.887  -3.773  0.00  0.00     0.021 A 
HETATM   17  C   UNK     0      -3.528  -8.276  -2.449  0.00  0.00     0.040 A 
HETATM   18  C   UNK     0      -4.725  -8.903  -1.710  0.00  0.00     0.006 A 
HETATM   19  C   UNK     0      -5.427 -10.141  -2.296  0.00  0.00     0.001 A 
HETATM   20  C   UNK     0      -4.933 -10.753  -3.621  0.00  0.00     0.006 A 
HETATM   21  C   UNK     0      -3.737 -10.126  -4.359  0.00  0.00     0.040 A 
ENDBRANCH   4  16
TORSDOF 1
ENDMDL
MODEL 8
REMARK VINA RESULT:      -4.5     23.657     25.845
REMARK  1 active torsions:
REMARK  status: ('A' for Active; 'I' for Inactive)
REMARK    1  A    between atoms: N_4  and  C_11 
ROOT
HETATM    1 Cl   UNK     0      -4.745 -11.595  -9.186  0.00  0.00    -0.091 Cl
HETATM    2  O   UNK     0      -1.709  -5.900  -4.745  0.00  0.00    -0.171 OA
HETATM    3  O   UNK     0      -4.052  -8.536  -0.947  0.00  0.00    -0.171 OA
HETATM    4  N   UNK     0      -2.915  -7.979  -5.757  0.00  0.00    -0.295 N 
HETATM    5  N   UNK     0      -4.479  -9.739  -3.221  0.00  0.00    -0.307 N 
HETATM    6  C   UNK     0      -3.748  -9.269  -5.857  0.00  0.00     0.059 A 
HETATM    7  C   UNK     0      -4.444 -10.053  -4.728  0.00  0.00     0.052 A 
HETATM    8  C   UNK     0      -2.977  -7.412  -3.041  0.00  0.00     0.091 A 
HETATM    9  C   UNK     0      -2.571  -7.152  -4.504  0.00  0.00     0.201 A 
HETATM   10  C   UNK     0      -3.826  -8.563  -2.471  0.00  0.00     0.198 A 
HETATM   11  C   UNK     0      -3.833  -9.769  -7.379  0.00  0.00     0.079 A 
HETATM   12  C   UNK     0      -5.273 -11.390  -5.043  0.00  0.00     0.050 A 
HETATM   13  C   UNK     0      -5.271 -10.731  -2.349  0.00  0.00     0.132 C 
HETATM   14  C   UNK     0      -4.653 -11.102  -7.731  0.00  0.00     0.020 A 
HETATM   15  C   UNK     0      -5.379 -11.918  -6.555  0.00  0.00     0.040 A 
ENDROOT
BRANCH   4  16
HETATM   16  C   UNK     0      -2.350  -7.444  -7.086  0.00  0.00     0.021 A 
HETATM   17  C   UNK     0      -0.988  -7.944  -7.601  0.00  0.00     0.040 A 
HETATM   18  C   UNK     0      -0.423  -7.409  -8.930  0.00  0.00     0.006 A 
HETATM   19  C   UNK     0      -1.220  -6.374  -9.743  0.00  0.00     0.001 A 
HETATM   20  C   UNK     0      -2.582  -5.872  -9.228  0.00  0.00     0.006 A 
HETATM   21  C   UNK     0      -3.147  -6.407  -7.900  0.00  0.00     0.040 A 
ENDBRANCH   4  16
TORSDOF 1
ENDMDL
MODEL 9
REMARK VINA RESULT:      -4.5     24.197     26.868
REMARK  1 active torsions:
REMARK  status: ('A' for Active; 'I' for Inactive)
REMARK    1  A    between atoms: N_4  and  C_11 
ROOT
HETATM    1 Cl   UNK     0      -2.189 -10.243 -11.122  0.00  0.00    -0.091 Cl
HETATM    2  O   UNK     0      -1.813  -5.859  -4.640  0.00  0.00    -0.171 OA
HETATM    3  O   UNK     0      -5.678  -8.965  -3.126  0.00  0.00    -0.171 OA
HETATM    4  N   UNK     0      -2.335  -7.572  -6.536  0.00  0.00    -0.295 N 
HETATM    5  N   UNK     0      -4.915  -9.645  -5.526  0.00  0.00    -0.307 N 
HETATM    6  C   UNK     0      -2.992  -8.732  -7.306  0.00  0.00     0.059 A 
HETATM    7  C   UNK     0      -4.140  -9.655  -6.856  0.00  0.00     0.052 A 
HETATM    8  C   UNK     0      -3.731  -7.553  -4.138  0.00  0.00     0.091 A 
HETATM    9  C   UNK     0      -2.664  -7.047  -5.126  0.00  0.00     0.201 A 
HETATM   10  C   UNK     0      -4.732  -8.710  -4.316  0.00  0.00     0.198 A 
HETATM   11  C   UNK     0      -2.311  -8.908  -8.748  0.00  0.00     0.079 A 
HETATM   12  C   UNK     0      -4.687 -10.817  -7.817  0.00  0.00     0.050 A 
HETATM   13  C   UNK     0      -6.017 -10.711  -5.386  0.00  0.00     0.132 C 
HETATM   14  C   UNK     0      -2.832 -10.061  -9.734  0.00  0.00     0.020 A 
HETATM   15  C   UNK     0      -4.029 -11.022  -9.266  0.00  0.00     0.040 A 
ENDROOT
BRANCH   4  16
HETATM   16  C   UNK     0      -1.199  -6.839  -7.273  0.00  0.00     0.021 A 
HETATM   17  C   UNK     0       0.258  -7.306  -7.102  0.00  0.00     0.040 A 
HETATM   18  C   UNK     0       1.394  -6.573  -7.839  0.00  0.00     0.006 A 
HETATM   19  C   UNK     0       1.073  -5.373  -8.748  0.00  0.00     0.001 A 
HETATM   20  C   UNK     0      -0.385  -4.905  -8.920  0.00  0.00     0.006 A 
HETATM   21  C   UNK     0      -1.520  -5.638  -8.183  0.00  0.00     0.040 A 
ENDBRANCH   4  16
TORSDOF 1
ENDMDL
MODEL 10
REMARK VINA RESULT:      -4.5     25.279     28.004
REMARK  1 active torsions:
REMARK  status: ('A' for Active; 'I' for Inactive)
REMARK    1  A    between atoms: N_4  and  C_11 
ROOT
HETATM    1 Cl   UNK     0      -4.790  -7.385 -10.520  0.00  0.00    -0.091 Cl
HETATM    2  O   UNK     0       0.363  -7.545  -4.621  0.00  0.00    -0.171 OA
HETATM    3  O   UNK     0       3.792  -7.576  -8.508  0.00  0.00    -0.171 OA
HETATM    4  N   UNK     0      -0.912  -7.497  -6.895  0.00  0.00    -0.295 N 
HETATM    5  N   UNK     0       1.376  -7.518  -9.490  0.00  0.00    -0.307 N 
HETATM    6  C   UNK     0      -1.180  -7.478  -8.411  0.00  0.00     0.059 A 
HETATM    7  C   UNK     0      -0.161  -7.487  -9.566  0.00  0.00     0.052 A 
HETATM    8  C   UNK     0       1.858  -7.554  -6.757  0.00  0.00     0.091 A 
HETATM    9  C   UNK     0       0.440  -7.531  -6.159  0.00  0.00     0.201 A 
HETATM   10  C   UNK     0       2.275  -7.548  -8.239  0.00  0.00     0.198 A 
HETATM   11  C   UNK     0      -2.757  -7.443  -8.705  0.00  0.00     0.079 A 
HETATM   12  C   UNK     0      -0.648  -7.462 -11.094  0.00  0.00     0.050 A 
HETATM   13  C   UNK     0       2.113  -7.520 -10.842  0.00  0.00     0.132 C 
HETATM   14  C   UNK     0      -3.280  -7.418 -10.221  0.00  0.00     0.020 A 
HETATM   15  C   UNK     0      -2.218  -7.428 -11.424  0.00  0.00     0.040 A 
ENDROOT
BRANCH   4  16
HETATM   16  C   UNK     0      -2.162  -7.481  -5.996  0.00  0.00     0.021 A 
HETATM   17  C   UNK     0      -2.692  -6.148  -5.436  0.00  0.00     0.040 A 
HETATM   18  C   UNK     0      -3.942  -6.131  -4.537  0.00  0.00     0.006 A 
HETATM   19  C   UNK     0      -4.662  -7.448  -4.197  0.00  0.00     0.001 A 
HETATM   20  C   UNK     0      -4.133  -8.783  -4.756  0.00  0.00     0.006 A 
HETATM   21  C   UNK     0      -2.884  -8.799  -5.655  0.00  0.00     0.040 A 
ENDBRANCH   4  16
TORSDOF 1
ENDMDL
