MODEL 1
REMARK VINA RESULT:      -5.0      0.000      0.000
REMARK  1 active torsions:
REMARK  status: ('A' for Active; 'I' for Inactive)
REMARK    1  A    between atoms: C_7  and  C_10 
ROOT
HETATM    1 Cl   UNK     0     -22.131   3.632  13.083  0.00  0.00    -0.091 Cl
HETATM    2  O   UNK     0     -18.608  -1.827   7.123  0.00  0.00    -0.169 OA
HETATM    3  N   UNK     0     -19.534  -0.488   9.161  0.00  0.00    -0.307 N 
HETATM    4  N   UNK     0     -20.482   1.792   6.736  0.00  0.00    -0.241 NA
HETATM    5  C   UNK     0     -20.849   1.934   9.483  0.00  0.00     0.011 A 
HETATM    6  C   UNK     0     -20.210   0.625   9.982  0.00  0.00     0.037 A 
HETATM    7  C   UNK     0     -20.970   2.453   8.038  0.00  0.00     0.071 A 
HETATM    8  C   UNK     0     -19.751   0.448   6.558  0.00  0.00     0.144 A 
HETATM    9  C   UNK     0     -19.329  -0.567   7.637  0.00  0.00     0.214 A 
HETATM   10  C   UNK     0     -21.509   2.974  10.512  0.00  0.00     0.062 A 
HETATM   11  C   UNK     0     -20.186   0.265  11.545  0.00  0.00     0.049 A 
HETATM   12  C   UNK     0     -18.989  -1.679   9.970  0.00  0.00     0.132 C 
HETATM   13  C   UNK     0     -21.502   2.645  12.082  0.00  0.00     0.018 A 
HETATM   14  C   UNK     0     -20.836   1.281  12.603  0.00  0.00     0.040 A 
ENDROOT
BRANCH   7  15
HETATM   15  C   UNK     0     -21.672   3.814   7.873  0.00  0.00    -0.027 A 
HETATM   16  C   UNK     0     -20.872   5.118   8.037  0.00  0.00     0.024 A 
HETATM   17  C   UNK     0     -21.574   6.479   7.872  0.00  0.00     0.004 A 
HETATM   18  C   UNK     0     -23.077   6.535   7.544  0.00  0.00     0.001 A 
HETATM   19  C   UNK     0     -23.878   5.230   7.381  0.00  0.00     0.004 A 
HETATM   20  C   UNK     0     -23.176   3.869   7.545  0.00  0.00     0.024 A 
ENDBRANCH   7  15
TORSDOF 1
ENDMDL
MODEL 2
REMARK VINA RESULT:      -4.6     11.514     14.218
REMARK  1 active torsions:
REMARK  status: ('A' for Active; 'I' for Inactive)
REMARK    1  A    between atoms: C_7  and  C_10 
ROOT
HETATM    1 Cl   UNK     0     -16.953  11.009  -4.766  0.00  0.00    -0.091 Cl
HETATM    2  O   UNK     0     -21.119   8.665   2.642  0.00  0.00    -0.169 OA
HETATM    3  N   UNK     0     -20.177   9.149   0.259  0.00  0.00    -0.307 N 
HETATM    4  N   UNK     0     -17.753  10.904   1.997  0.00  0.00    -0.241 NA
HETATM    5  C   UNK     0     -18.006  10.555  -0.745  0.00  0.00     0.011 A 
HETATM    6  C   UNK     0     -19.273   9.689  -0.865  0.00  0.00     0.037 A 
HETATM    7  C   UNK     0     -17.330  11.096   0.529  0.00  0.00     0.071 A 
HETATM    8  C   UNK     0     -18.959  10.123   2.553  0.00  0.00     0.144 A 
HETATM    9  C   UNK     0     -20.038   9.343   1.780  0.00  0.00     0.214 A 
HETATM   10  C   UNK     0     -17.198  11.018  -2.051  0.00  0.00     0.062 A 
HETATM   11  C   UNK     0     -19.821   9.225  -2.299  0.00  0.00     0.049 A 
HETATM   12  C   UNK     0     -21.381   8.305  -0.199  0.00  0.00     0.132 C 
HETATM   13  C   UNK     0     -17.717  10.573  -3.502  0.00  0.00     0.018 A 
HETATM   14  C   UNK     0     -19.038   9.670  -3.627  0.00  0.00     0.040 A 
ENDROOT
BRANCH   7  15
HETATM   15  C   UNK     0     -16.062  11.941   0.305  0.00  0.00    -0.027 A 
HETATM   16  C   UNK     0     -14.688  11.254   0.195  0.00  0.00     0.024 A 
HETATM   17  C   UNK     0     -13.420  12.099  -0.029  0.00  0.00     0.004 A 
HETATM   18  C   UNK     0     -13.526  13.630  -0.143  0.00  0.00     0.001 A 
HETATM   19  C   UNK     0     -14.900  14.318  -0.033  0.00  0.00     0.004 A 
HETATM   20  C   UNK     0     -16.168  13.473   0.191  0.00  0.00     0.024 A 
ENDBRANCH   7  15
TORSDOF 1
ENDMDL
MODEL 3
REMARK VINA RESULT:      -4.5     26.105     28.740
REMARK  1 active torsions:
REMARK  status: ('A' for Active; 'I' for Inactive)
REMARK    1  A    between atoms: C_7  and  C_10 
ROOT
HETATM    1 Cl   UNK     0      -3.644  -4.172 -12.305  0.00  0.00    -0.091 Cl
HETATM    2  O   UNK     0      -0.743  -7.240  -4.565  0.00  0.00    -0.169 OA
HETATM    3  N   UNK     0      -1.973  -6.418  -6.714  0.00  0.00    -0.307 N 
HETATM    4  N   UNK     0       1.235  -5.726  -7.814  0.00  0.00    -0.241 NA
HETATM    5  C   UNK     0      -1.172  -5.336  -9.140  0.00  0.00     0.011 A 
HETATM    6  C   UNK     0      -2.210  -5.840  -8.121  0.00  0.00     0.037 A 
HETATM    7  C   UNK     0       0.361  -5.285  -9.003  0.00  0.00     0.071 A 
HETATM    8  C   UNK     0       0.790  -6.327  -6.468  0.00  0.00     0.144 A 
HETATM    9  C   UNK     0      -0.637  -6.635  -5.978  0.00  0.00     0.214 A 
HETATM   10  C   UNK     0      -1.629  -4.764 -10.568  0.00  0.00     0.062 A 
HETATM   11  C   UNK     0      -3.778  -5.808  -8.459  0.00  0.00     0.049 A 
HETATM   12  C   UNK     0      -3.237  -6.835  -5.940  0.00  0.00     0.132 C 
HETATM   13  C   UNK     0      -3.189  -4.718 -10.939  0.00  0.00     0.018 A 
HETATM   14  C   UNK     0      -4.271  -5.243  -9.877  0.00  0.00     0.040 A 
ENDROOT
BRANCH   7  15
HETATM   15  C   UNK     0       1.122  -4.718 -10.216  0.00  0.00    -0.027 A 
HETATM   16  C   UNK     0       1.629  -5.665 -11.319  0.00  0.00     0.024 A 
HETATM   17  C   UNK     0       2.389  -5.098 -12.532  0.00  0.00     0.004 A 
HETATM   18  C   UNK     0       2.643  -3.584 -12.642  0.00  0.00     0.001 A 
HETATM   19  C   UNK     0       2.136  -2.636 -11.539  0.00  0.00     0.004 A 
HETATM   20  C   UNK     0       1.376  -3.203 -10.326  0.00  0.00     0.024 A 
ENDBRANCH   7  15
TORSDOF 1
ENDMDL
MODEL 4
REMARK VINA RESULT:      -4.5     23.779     26.533
REMARK  1 active torsions:
REMARK  status: ('A' for Active; 'I' for Inactive)
REMARK    1  A    between atoms: C_7  and  C_10 
ROOT
HETATM    1 Cl   UNK     0      -0.392 -11.386  -8.436  0.00  0.00    -0.091 Cl
HETATM    2  O   UNK     0      -5.951  -8.153  -2.405  0.00  0.00    -0.169 OA
HETATM    3  N   UNK     0      -4.439  -9.475  -4.069  0.00  0.00    -0.307 N 
HETATM    4  N   UNK     0      -3.387  -6.316  -5.014  0.00  0.00    -0.241 NA
HETATM    5  C   UNK     0      -2.573  -8.778  -6.001  0.00  0.00     0.011 A 
HETATM    6  C   UNK     0      -3.407  -9.772  -5.172  0.00  0.00     0.037 A 
HETATM    7  C   UNK     0      -2.564  -7.240  -5.930  0.00  0.00     0.071 A 
HETATM    8  C   UNK     0      -4.423  -6.703  -3.942  0.00  0.00     0.144 A 
HETATM    9  C   UNK     0      -4.891  -8.108  -3.521  0.00  0.00     0.214 A 
HETATM   10  C   UNK     0      -1.541  -9.296  -7.115  0.00  0.00     0.062 A 
HETATM   11  C   UNK     0      -3.268 -11.354  -5.401  0.00  0.00     0.049 A 
HETATM   12  C   UNK     0      -5.107 -10.705  -3.428  0.00  0.00     0.132 C 
HETATM   13  C   UNK     0      -1.377 -10.871  -7.370  0.00  0.00     0.018 A 
HETATM   14  C   UNK     0      -2.247 -11.908  -6.507  0.00  0.00     0.040 A 
ENDROOT
BRANCH   7  15
HETATM   15  C   UNK     0      -1.605  -6.531  -6.905  0.00  0.00    -0.027 A 
HETATM   16  C   UNK     0      -2.124  -6.018  -8.259  0.00  0.00     0.024 A 
HETATM   17  C   UNK     0      -1.165  -5.309  -9.234  0.00  0.00     0.004 A 
HETATM   18  C   UNK     0       0.314  -5.115  -8.854  0.00  0.00     0.001 A 
HETATM   19  C   UNK     0       0.834  -5.629  -7.498  0.00  0.00     0.004 A 
HETATM   20  C   UNK     0      -0.125  -6.337  -6.524  0.00  0.00     0.024 A 
ENDBRANCH   7  15
TORSDOF 1
ENDMDL
MODEL 5
REMARK VINA RESULT:      -4.3     25.790     27.804
REMARK  1 active torsions:
REMARK  status: ('A' for Active; 'I' for Inactive)
REMARK    1  A    between atoms: C_7  and  C_10 
ROOT
HETATM    1 Cl   UNK     0      -3.547 -10.988  -9.165  0.00  0.00    -0.091 Cl
HETATM    2  O   UNK     0      -5.203  -3.507 -13.527  0.00  0.00    -0.169 OA
HETATM    3  N   UNK     0      -4.906  -5.905 -12.543  0.00  0.00    -0.307 N 
HETATM    4  N   UNK     0      -3.279  -4.233  -9.986  0.00  0.00    -0.241 NA
HETATM    5  C   UNK     0      -3.730  -6.957 -10.261  0.00  0.00     0.011 A 
HETATM    6  C   UNK     0      -4.494  -7.046 -11.595  0.00  0.00     0.037 A 
HETATM    7  C   UNK     0      -3.189  -5.705  -9.545  0.00  0.00     0.071 A 
HETATM    8  C   UNK     0      -3.932  -3.649 -11.253  0.00  0.00     0.144 A 
HETATM    9  C   UNK     0      -4.656  -4.393 -12.391  0.00  0.00     0.214 A 
HETATM   10  C   UNK     0      -3.394  -8.278  -9.414  0.00  0.00     0.062 A 
HETATM   11  C   UNK     0      -4.975  -8.461 -12.175  0.00  0.00     0.049 A 
HETATM   12  C   UNK     0      -5.669  -6.331 -13.810  0.00  0.00     0.132 C 
HETATM   13  C   UNK     0      -3.861  -9.711  -9.965  0.00  0.00     0.018 A 
HETATM   14  C   UNK     0      -4.657  -9.803 -11.355  0.00  0.00     0.040 A 
ENDROOT
BRANCH   7  15
HETATM   15  C   UNK     0      -2.462  -5.959  -8.211  0.00  0.00    -0.027 A 
HETATM   16  C   UNK     0      -0.936  -6.161  -8.192  0.00  0.00     0.024 A 
HETATM   17  C   UNK     0      -0.209  -6.415  -6.859  0.00  0.00     0.004 A 
HETATM   18  C   UNK     0      -1.008  -6.468  -5.544  0.00  0.00     0.001 A 
HETATM   19  C   UNK     0      -2.536  -6.266  -5.563  0.00  0.00     0.004 A 
HETATM   20  C   UNK     0      -3.262  -6.012  -6.897  0.00  0.00     0.024 A 
ENDBRANCH   7  15
TORSDOF 1
ENDMDL
MODEL 6
REMARK VINA RESULT:      -4.1     13.962     16.618
REMARK  1 active torsions:
REMARK  status: ('A' for Active; 'I' for Inactive)
REMARK    1  A    between atoms: C_7  and  C_10 
ROOT
HETATM    1 Cl   UNK     0     -12.795  13.229  -5.137  0.00  0.00    -0.091 Cl
HETATM    2  O   UNK     0     -19.472   9.846  -0.477  0.00  0.00    -0.169 OA
HETATM    3  N   UNK     0     -17.685  10.691  -2.180  0.00  0.00    -0.307 N 
HETATM    4  N   UNK     0     -16.162  11.977   0.649  0.00  0.00    -0.241 NA
HETATM    5  C   UNK     0     -15.322  12.132  -1.991  0.00  0.00     0.011 A 
HETATM    6  C   UNK     0     -16.426  11.370  -2.747  0.00  0.00     0.037 A 
HETATM    7  C   UNK     0     -15.205  12.402  -0.479  0.00  0.00     0.071 A 
HETATM    8  C   UNK     0     -17.475  11.177   0.544  0.00  0.00     0.144 A 
HETATM    9  C   UNK     0     -18.152  10.605  -0.715  0.00  0.00     0.214 A 
HETATM   10  C   UNK     0     -14.078  12.773  -2.775  0.00  0.00     0.062 A 
HETATM   11  C   UNK     0     -16.363  11.197  -4.341  0.00  0.00     0.049 A 
HETATM   12  C   UNK     0     -18.599  10.007  -3.213  0.00  0.00     0.132 C 
HETATM   13  C   UNK     0     -13.983  12.619  -4.369  0.00  0.00     0.018 A 
HETATM   14  C   UNK     0     -15.133  11.826  -5.157  0.00  0.00     0.040 A 
ENDROOT
BRANCH   7  15
HETATM   15  C   UNK     0     -13.966  13.202  -0.037  0.00  0.00    -0.027 A 
HETATM   16  C   UNK     0     -14.050  14.732   0.111  0.00  0.00     0.024 A 
HETATM   17  C   UNK     0     -12.811  15.533   0.553  0.00  0.00     0.004 A 
HETATM   18  C   UNK     0     -11.488  14.804   0.847  0.00  0.00     0.001 A 
HETATM   19  C   UNK     0     -11.403  13.272   0.699  0.00  0.00     0.004 A 
HETATM   20  C   UNK     0     -12.642  12.472   0.257  0.00  0.00     0.024 A 
ENDBRANCH   7  15
TORSDOF 1
ENDMDL
MODEL 7
REMARK VINA RESULT:      -4.1      1.838      5.149
REMARK  1 active torsions:
REMARK  status: ('A' for Active; 'I' for Inactive)
REMARK    1  A    between atoms: C_7  and  C_10 
ROOT
HETATM    1 Cl   UNK     0     -22.533   5.406  12.171  0.00  0.00    -0.091 Cl
HETATM    2  O   UNK     0     -20.370   1.399   4.622  0.00  0.00    -0.169 OA
HETATM    3  N   UNK     0     -21.058   2.917   6.628  0.00  0.00    -0.307 N 
HETATM    4  N   UNK     0     -20.616   0.020   8.469  0.00  0.00    -0.241 NA
HETATM    5  C   UNK     0     -21.382   2.535   9.357  0.00  0.00     0.011 A 
HETATM    6  C   UNK     0     -21.391   3.368   8.062  0.00  0.00     0.037 A 
HETATM    7  C   UNK     0     -21.037   1.045   9.538  0.00  0.00     0.071 A 
HETATM    8  C   UNK     0     -20.436   0.233   6.954  0.00  0.00     0.144 A 
HETATM    9  C   UNK     0     -20.633   1.522   6.134  0.00  0.00     0.214 A 
HETATM   10  C   UNK     0     -21.765   3.200  10.766  0.00  0.00     0.062 A 
HETATM   11  C   UNK     0     -21.784   4.923   8.086  0.00  0.00     0.049 A 
HETATM   12  C   UNK     0     -21.164   4.005   5.543  0.00  0.00     0.132 C 
HETATM   13  C   UNK     0     -22.163   4.752  10.827  0.00  0.00     0.018 A 
HETATM   14  C   UNK     0     -22.173   5.620   9.477  0.00  0.00     0.040 A 
ENDROOT
BRANCH   7  15
HETATM   15  C   UNK     0     -21.124   0.509  10.979  0.00  0.00    -0.027 A 
HETATM   16  C   UNK     0     -19.935   0.687  11.940  0.00  0.00     0.024 A 
HETATM   17  C   UNK     0     -20.022   0.151  13.381  0.00  0.00     0.004 A 
HETATM   18  C   UNK     0     -21.299  -0.562  13.861  0.00  0.00     0.001 A 
HETATM   19  C   UNK     0     -22.489  -0.741  12.899  0.00  0.00     0.004 A 
HETATM   20  C   UNK     0     -22.402  -0.205  11.458  0.00  0.00     0.024 A 
ENDBRANCH   7  15
TORSDOF 1
ENDMDL
MODEL 8
REMARK VINA RESULT:      -4.1     23.977     26.782
REMARK  1 active torsions:
REMARK  status: ('A' for Active; 'I' for Inactive)
REMARK    1  A    between atoms: C_7  and  C_10 
ROOT
HETATM    1 Cl   UNK     0       0.554 -11.893  -3.529  0.00  0.00    -0.091 Cl
HETATM    2  O   UNK     0      -0.757  -4.986  -8.849  0.00  0.00    -0.169 OA
HETATM    3  N   UNK     0      -0.005  -7.057  -7.453  0.00  0.00    -0.307 N 
HETATM    4  N   UNK     0      -3.130  -6.726  -6.004  0.00  0.00    -0.241 NA
HETATM    5  C   UNK     0      -1.159  -8.602  -5.458  0.00  0.00     0.011 A 
HETATM    6  C   UNK     0      -0.032  -8.208  -6.431  0.00  0.00     0.037 A 
HETATM    7  C   UNK     0      -2.538  -7.943  -5.268  0.00  0.00     0.071 A 
HETATM    8  C   UNK     0      -2.489  -5.869  -7.111  0.00  0.00     0.144 A 
HETATM    9  C   UNK     0      -1.099  -6.016  -7.756  0.00  0.00     0.214 A 
HETATM   10  C   UNK     0      -0.989  -9.848  -4.462  0.00  0.00     0.062 A 
HETATM   11  C   UNK     0       1.343  -9.032  -6.474  0.00  0.00     0.049 A 
HETATM   12  C   UNK     0       1.286  -6.930  -8.283  0.00  0.00     0.132 C 
HETATM   13  C   UNK     0       0.374 -10.694  -4.478  0.00  0.00     0.018 A 
HETATM   14  C   UNK     0       1.548 -10.284  -5.492  0.00  0.00     0.040 A 
ENDROOT
BRANCH   7  15
HETATM   15  C   UNK     0      -3.444  -8.584  -4.201  0.00  0.00    -0.027 A 
HETATM   16  C   UNK     0      -3.400  -8.079  -2.748  0.00  0.00     0.024 A 
HETATM   17  C   UNK     0      -4.306  -8.721  -1.681  0.00  0.00     0.004 A 
HETATM   18  C   UNK     0      -5.257  -9.868  -2.068  0.00  0.00     0.001 A 
HETATM   19  C   UNK     0      -5.302 -10.374  -3.522  0.00  0.00     0.004 A 
HETATM   20  C   UNK     0      -4.395  -9.732  -4.589  0.00  0.00     0.024 A 
ENDBRANCH   7  15
TORSDOF 1
ENDMDL
MODEL 9
REMARK VINA RESULT:      -4.0     12.308     13.994
REMARK  1 active torsions:
REMARK  status: ('A' for Active; 'I' for Inactive)
REMARK    1  A    between atoms: C_7  and  C_10 
ROOT
HETATM    1 Cl   UNK     0     -12.439  -0.902  16.477  0.00  0.00    -0.091 Cl
HETATM    2  O   UNK     0     -13.894  -9.518  15.306  0.00  0.00    -0.169 OA
HETATM    3  N   UNK     0     -13.830  -6.963  15.828  0.00  0.00    -0.307 N 
HETATM    4  N   UNK     0     -10.723  -7.127  14.310  0.00  0.00    -0.241 NA
HETATM    5  C   UNK     0     -12.004  -4.919  15.399  0.00  0.00     0.011 A 
HETATM    6  C   UNK     0     -13.333  -5.508  15.906  0.00  0.00     0.037 A 
HETATM    7  C   UNK     0     -10.842  -5.639  14.689  0.00  0.00     0.071 A 
HETATM    8  C   UNK     0     -11.737  -8.262  14.549  0.00  0.00     0.144 A 
HETATM    9  C   UNK     0     -13.119  -8.189  15.224  0.00  0.00     0.214 A 
HETATM   10  C   UNK     0     -11.673  -3.359  15.579  0.00  0.00     0.062 A 
HETATM   11  C   UNK     0     -14.423  -4.579  16.627  0.00  0.00     0.049 A 
HETATM   12  C   UNK     0     -15.220  -7.229  16.434  0.00  0.00     0.132 C 
HETATM   13  C   UNK     0     -12.740  -2.401  16.296  0.00  0.00     0.018 A 
HETATM   14  C   UNK     0     -14.126  -3.015  16.824  0.00  0.00     0.040 A 
ENDROOT
BRANCH   7  15
HETATM   15  C   UNK     0      -9.641  -4.755  14.307  0.00  0.00    -0.027 A 
HETATM   16  C   UNK     0      -8.456  -4.604  15.278  0.00  0.00     0.024 A 
HETATM   17  C   UNK     0      -7.254  -3.720  14.897  0.00  0.00     0.004 A 
HETATM   18  C   UNK     0      -7.238  -2.986  13.544  0.00  0.00     0.001 A 
HETATM   19  C   UNK     0      -8.423  -3.136  12.571  0.00  0.00     0.004 A 
HETATM   20  C   UNK     0      -9.625  -4.021  12.953  0.00  0.00     0.024 A 
ENDBRANCH   7  15
TORSDOF 1
ENDMDL
MODEL 10
REMARK VINA RESULT:      -4.0     26.717     28.042
REMARK  1 active torsions:
REMARK  status: ('A' for Active; 'I' for Inactive)
REMARK    1  A    between atoms: C_7  and  C_10 
ROOT
HETATM    1 Cl   UNK     0       1.816  17.910   1.837  0.00  0.00    -0.091 Cl
HETATM    2  O   UNK     0       5.795  11.856  -3.187  0.00  0.00    -0.169 OA
HETATM    3  N   UNK     0       4.990  13.803  -1.650  0.00  0.00    -0.307 N 
HETATM    4  N   UNK     0       1.871  12.389  -2.150  0.00  0.00    -0.241 NA
HETATM    5  C   UNK     0       2.537  14.626  -0.649  0.00  0.00     0.011 A 
HETATM    6  C   UNK     0       4.062  14.722  -0.834  0.00  0.00     0.037 A 
HETATM    7  C   UNK     0       1.561  13.588  -1.235  0.00  0.00     0.071 A 
HETATM    8  C   UNK     0       3.233  11.932  -2.705  0.00  0.00     0.144 A 
HETATM    9  C   UNK     0       4.621  12.562  -2.483  0.00  0.00     0.214 A 
HETATM   10  C   UNK     0       1.747  15.694   0.252  0.00  0.00     0.062 A 
HETATM   11  C   UNK     0       4.905  15.891  -0.131  0.00  0.00     0.049 A 
HETATM   12  C   UNK     0       6.484  14.174  -1.631  0.00  0.00     0.132 C 
HETATM   13  C   UNK     0       2.558  16.877   0.969  0.00  0.00     0.018 A 
HETATM   14  C   UNK     0       4.148  16.977   0.777  0.00  0.00     0.040 A 
ENDROOT
BRANCH   7  15
HETATM   15  C   UNK     0       0.080  13.773  -0.855  0.00  0.00    -0.027 A 
HETATM   16  C   UNK     0      -0.473  13.122   0.425  0.00  0.00     0.024 A 
HETATM   17  C   UNK     0      -1.954  13.308   0.805  0.00  0.00     0.004 A 
HETATM   18  C   UNK     0      -2.881  14.143  -0.096  0.00  0.00     0.001 A 
HETATM   19  C   UNK     0      -2.327  14.794  -1.378  0.00  0.00     0.004 A 
HETATM   20  C   UNK     0      -0.847  14.609  -1.757  0.00  0.00     0.024 A 
ENDBRANCH   7  15
TORSDOF 1
ENDMDL
