MODEL 1
REMARK VINA RESULT:      -7.5      0.000      0.000
REMARK  7 active torsions:
REMARK  status: ('A' for Active; 'I' for Inactive)
REMARK    1  A    between atoms: N_3  and  C_7 
REMARK    2  A    between atoms: N_4  and  C_10 
REMARK    3  A    between atoms: C_7  and  C_11 
REMARK    4  A    between atoms: C_7  and  C_12 
REMARK    5  A    between atoms: C_10  and  C_13 
REMARK    6  A    between atoms: C_13  and  C_22 
REMARK    7  A    between atoms: C_22  and  C_25 
ROOT
HETATM    1  N   UNK     0       5.344  -5.305   0.371  0.00  0.00    -0.345 N 
HETATM    2  N   UNK     0       5.126  -2.526   1.681  0.00  0.00    -0.365 N 
HETATM    3  C   UNK     0       4.116  -4.416   0.093  0.00  0.00     0.125 A 
HETATM    4  C   UNK     0       6.461  -4.804   1.303  0.00  0.00     0.125 A 
HETATM    5  C   UNK     0       4.008  -3.027   0.748  0.00  0.00     0.122 A 
HETATM    6  C   UNK     0       6.353  -3.414   1.958  0.00  0.00     0.122 A 
ENDROOT
BRANCH   1   7
HETATM    7  C   UNK     0       5.452  -6.694  -0.285  0.00  0.00     0.040 C 
BRANCH   7   8
HETATM    8  C   UNK     0       5.868  -7.913   0.560  0.00  0.00    -0.029 A 
HETATM    9  C   UNK     0       4.997  -8.359   1.749  0.00  0.00     0.030 A 
HETATM   10  C   UNK     0       5.412  -9.577   2.594  0.00  0.00     0.056 A 
HETATM   11  C   UNK     0       6.699 -10.351   2.249  0.00  0.00     0.096 A 
HETATM   12  F   UNK     0       7.114 -11.570   3.093  0.00  0.00    -0.213 F 
HETATM   13  C   UNK     0       7.570  -9.905   1.060  0.00  0.00     0.056 A 
HETATM   14  C   UNK     0       7.154  -8.686   0.215  0.00  0.00     0.030 A 
ENDBRANCH   7   8
BRANCH   7  15
HETATM   15  C   UNK     0       5.145  -6.865  -1.783  0.00  0.00    -0.029 A 
HETATM   16  C   UNK     0       5.753  -5.890  -2.810  0.00  0.00     0.030 A 
HETATM   17  C   UNK     0       5.446  -6.061  -4.309  0.00  0.00     0.056 A 
HETATM   18  C   UNK     0       4.532  -7.206  -4.783  0.00  0.00     0.096 A 
HETATM   19  F   UNK     0       4.225  -7.376  -6.283  0.00  0.00    -0.213 F 
HETATM   20  C   UNK     0       3.924  -8.180  -3.757  0.00  0.00     0.056 A 
HETATM   21  C   UNK     0       4.231  -8.010  -2.257  0.00  0.00     0.030 A 
ENDBRANCH   7  15
ENDBRANCH   1   7
BRANCH   2  22
HETATM   22  C   UNK     0       5.018  -1.136   2.336  0.00  0.00     0.097 C 
BRANCH  22  23
HETATM   23  C   UNK     0       3.972  -0.884   3.437  0.00  0.00     0.024 C 
BRANCH  23  24
HETATM   24  C   UNK     0       3.888  -1.827   4.651  0.00  0.00     0.002 C 
BRANCH  24  25
HETATM   25  C   UNK     0       2.577  -1.939   5.451  0.00  0.00     0.000 A 
HETATM   26  C   UNK     0       1.227  -1.678   4.756  0.00  0.00     0.000 A 
HETATM   27  C   UNK     0      -0.085  -1.790   5.556  0.00  0.00     0.000 A 
HETATM   28  C   UNK     0      -0.047  -2.162   7.050  0.00  0.00     0.000 A 
HETATM   29  C   UNK     0       1.303  -2.422   7.745  0.00  0.00     0.000 A 
HETATM   30  C   UNK     0       2.614  -2.310   6.945  0.00  0.00     0.000 A 
ENDBRANCH  24  25
ENDBRANCH  23  24
ENDBRANCH  22  23
ENDBRANCH   2  22
TORSDOF 7
ENDMDL
MODEL 2
REMARK VINA RESULT:      -7.3      0.250      4.777
REMARK  7 active torsions:
REMARK  status: ('A' for Active; 'I' for Inactive)
REMARK    1  A    between atoms: N_3  and  C_7 
REMARK    2  A    between atoms: N_4  and  C_10 
REMARK    3  A    between atoms: C_7  and  C_11 
REMARK    4  A    between atoms: C_7  and  C_12 
REMARK    5  A    between atoms: C_10  and  C_13 
REMARK    6  A    between atoms: C_13  and  C_22 
REMARK    7  A    between atoms: C_22  and  C_25 
ROOT
HETATM    1  N   UNK     0       5.427  -5.394   0.555  0.00  0.00    -0.345 N 
HETATM    2  N   UNK     0       5.280  -2.644   1.936  0.00  0.00    -0.365 N 
HETATM    3  C   UNK     0       4.102  -4.608   0.566  0.00  0.00     0.125 A 
HETATM    4  C   UNK     0       6.677  -4.805   1.234  0.00  0.00     0.125 A 
HETATM    5  C   UNK     0       4.029  -3.233   1.257  0.00  0.00     0.122 A 
HETATM    6  C   UNK     0       6.603  -3.431   1.924  0.00  0.00     0.122 A 
ENDROOT
BRANCH   1   7
HETATM    7  C   UNK     0       5.500  -6.768  -0.135  0.00  0.00     0.040 C 
BRANCH   7   8
HETATM    8  C   UNK     0       5.149  -6.900  -1.629  0.00  0.00    -0.029 A 
HETATM    9  C   UNK     0       5.697  -5.877  -2.642  0.00  0.00     0.030 A 
HETATM   10  C   UNK     0       5.346  -6.008  -4.135  0.00  0.00     0.056 A 
HETATM   11  C   UNK     0       4.446  -7.161  -4.616  0.00  0.00     0.096 A 
HETATM   12  F   UNK     0       4.095  -7.293  -6.110  0.00  0.00    -0.213 F 
HETATM   13  C   UNK     0       3.898  -8.184  -3.604  0.00  0.00     0.056 A 
HETATM   14  C   UNK     0       4.249  -8.053  -2.110  0.00  0.00     0.030 A 
ENDBRANCH   7   8
BRANCH   7  15
HETATM   15  C   UNK     0       5.925  -8.011   0.668  0.00  0.00    -0.029 A 
HETATM   16  C   UNK     0       4.996  -8.578   1.758  0.00  0.00     0.030 A 
HETATM   17  C   UNK     0       5.420  -9.822   2.561  0.00  0.00     0.056 A 
HETATM   18  C   UNK     0       6.774 -10.499   2.274  0.00  0.00     0.096 A 
HETATM   19  F   UNK     0       7.198 -11.743   3.078  0.00  0.00    -0.213 F 
HETATM   20  C   UNK     0       7.702  -9.932   1.184  0.00  0.00     0.056 A 
HETATM   21  C   UNK     0       7.278  -8.688   0.381  0.00  0.00     0.030 A 
ENDBRANCH   7  15
ENDBRANCH   1   7
BRANCH   2  22
HETATM   22  C   UNK     0       5.206  -1.270   2.626  0.00  0.00     0.097 C 
BRANCH  22  23
HETATM   23  C   UNK     0       4.039  -0.947   3.576  0.00  0.00     0.024 C 
BRANCH  23  24
HETATM   24  C   UNK     0       3.910  -1.690   4.919  0.00  0.00     0.002 C 
BRANCH  24  25
HETATM   25  C   UNK     0       2.527  -1.856   5.577  0.00  0.00     0.000 A 
HETATM   26  C   UNK     0       2.424  -2.239   7.065  0.00  0.00     0.000 A 
HETATM   27  C   UNK     0       1.041  -2.405   7.724  0.00  0.00     0.000 A 
HETATM   28  C   UNK     0      -0.238  -2.187   6.894  0.00  0.00     0.000 A 
HETATM   29  C   UNK     0      -0.135  -1.804   5.406  0.00  0.00     0.000 A 
HETATM   30  C   UNK     0       1.248  -1.638   4.748  0.00  0.00     0.000 A 
ENDBRANCH  24  25
ENDBRANCH  23  24
ENDBRANCH  22  23
ENDBRANCH   2  22
TORSDOF 7
ENDMDL
MODEL 3
REMARK VINA RESULT:      -6.5      4.901     10.674
REMARK  7 active torsions:
REMARK  status: ('A' for Active; 'I' for Inactive)
REMARK    1  A    between atoms: N_3  and  C_7 
REMARK    2  A    between atoms: N_4  and  C_10 
REMARK    3  A    between atoms: C_7  and  C_11 
REMARK    4  A    between atoms: C_7  and  C_12 
REMARK    5  A    between atoms: C_10  and  C_13 
REMARK    6  A    between atoms: C_13  and  C_22 
REMARK    7  A    between atoms: C_22  and  C_25 
ROOT
HETATM    1  N   UNK     0       5.418  -9.920  -0.363  0.00  0.00    -0.345 N 
HETATM    2  N   UNK     0       5.883 -12.920   0.158  0.00  0.00    -0.365 N 
HETATM    3  C   UNK     0       4.445 -10.705   0.538  0.00  0.00     0.125 A 
HETATM    4  C   UNK     0       6.622 -10.636  -1.003  0.00  0.00     0.125 A 
HETATM    5  C   UNK     0       4.678 -12.205   0.798  0.00  0.00     0.122 A 
HETATM    6  C   UNK     0       6.854 -12.135  -0.742  0.00  0.00     0.122 A 
ENDROOT
BRANCH   1   7
HETATM    7  C   UNK     0       5.185  -8.420  -0.624  0.00  0.00     0.040 C 
BRANCH   7   8
HETATM    8  C   UNK     0       5.593  -7.382   0.439  0.00  0.00    -0.029 A 
HETATM    9  C   UNK     0       6.990  -7.446   1.082  0.00  0.00     0.030 A 
HETATM   10  C   UNK     0       7.398  -6.409   2.143  0.00  0.00     0.056 A 
HETATM   11  C   UNK     0       6.408  -5.306   2.562  0.00  0.00     0.096 A 
HETATM   12  F   UNK     0       6.815  -4.268   3.625  0.00  0.00    -0.213 F 
HETATM   13  C   UNK     0       5.010  -5.242   1.919  0.00  0.00     0.056 A 
HETATM   14  C   UNK     0       4.602  -6.280   0.857  0.00  0.00     0.030 A 
ENDBRANCH   7   8
BRANCH   7  15
HETATM   15  C   UNK     0       4.546  -7.959  -1.946  0.00  0.00    -0.029 A 
HETATM   16  C   UNK     0       4.866  -6.561  -2.509  0.00  0.00     0.030 A 
HETATM   17  C   UNK     0       4.226  -6.099  -3.832  0.00  0.00     0.056 A 
HETATM   18  C   UNK     0       3.267  -7.034  -4.591  0.00  0.00     0.096 A 
HETATM   19  F   UNK     0       2.627  -6.571  -5.914  0.00  0.00    -0.213 F 
HETATM   20  C   UNK     0       2.947  -8.431  -4.028  0.00  0.00     0.056 A 
HETATM   21  C   UNK     0       3.586  -8.894  -2.705  0.00  0.00     0.030 A 
ENDBRANCH   7  15
ENDBRANCH   1   7
BRANCH   2  22
HETATM   22  C   UNK     0       6.115 -14.420   0.419  0.00  0.00     0.097 C 
BRANCH  22  23
HETATM   23  C   UNK     0       7.127 -15.202  -0.437  0.00  0.00     0.024 C 
BRANCH  23  24
HETATM   24  C   UNK     0       8.597 -15.307   0.011  0.00  0.00     0.002 C 
BRANCH  24  25
HETATM   25  C   UNK     0       9.283 -16.684   0.086  0.00  0.00     0.000 A 
HETATM   26  C   UNK     0       8.448 -17.945   0.371  0.00  0.00     0.000 A 
HETATM   27  C   UNK     0       9.135 -19.322   0.446  0.00  0.00     0.000 A 
HETATM   28  C   UNK     0      10.656 -19.437   0.236  0.00  0.00     0.000 A 
HETATM   29  C   UNK     0      11.491 -18.175  -0.050  0.00  0.00     0.000 A 
HETATM   30  C   UNK     0      10.805 -16.798  -0.125  0.00  0.00     0.000 A 
ENDBRANCH  24  25
ENDBRANCH  23  24
ENDBRANCH  22  23
ENDBRANCH   2  22
TORSDOF 7
ENDMDL
MODEL 4
REMARK VINA RESULT:      -6.5      3.762     10.179
REMARK  7 active torsions:
REMARK  status: ('A' for Active; 'I' for Inactive)
REMARK    1  A    between atoms: N_3  and  C_7 
REMARK    2  A    between atoms: N_4  and  C_10 
REMARK    3  A    between atoms: C_7  and  C_11 
REMARK    4  A    between atoms: C_7  and  C_12 
REMARK    5  A    between atoms: C_10  and  C_13 
REMARK    6  A    between atoms: C_13  and  C_22 
REMARK    7  A    between atoms: C_22  and  C_25 
ROOT
HETATM    1  N   UNK     0       5.891  -7.939   0.632  0.00  0.00    -0.345 N 
HETATM    2  N   UNK     0       6.669 -10.416   2.290  0.00  0.00    -0.365 N 
HETATM    3  C   UNK     0       7.200  -8.691   0.325  0.00  0.00     0.125 A 
HETATM    4  C   UNK     0       4.972  -8.425   1.767  0.00  0.00     0.125 A 
HETATM    5  C   UNK     0       7.589  -9.930   1.154  0.00  0.00     0.122 A 
HETATM    6  C   UNK     0       5.361  -9.664   2.596  0.00  0.00     0.122 A 
ENDROOT
BRANCH   1   7
HETATM    7  C   UNK     0       5.502  -6.701  -0.197  0.00  0.00     0.040 C 
BRANCH   7   8
HETATM    8  C   UNK     0       5.164  -6.850  -1.692  0.00  0.00    -0.029 A 
HETATM    9  C   UNK     0       5.717  -5.838  -2.712  0.00  0.00     0.030 A 
HETATM   10  C   UNK     0       5.379  -5.987  -4.206  0.00  0.00     0.056 A 
HETATM   11  C   UNK     0       4.487  -7.149  -4.682  0.00  0.00     0.096 A 
HETATM   12  F   UNK     0       4.148  -7.299  -6.177  0.00  0.00    -0.213 F 
HETATM   13  C   UNK     0       3.934  -8.162  -3.662  0.00  0.00     0.056 A 
HETATM   14  C   UNK     0       4.272  -8.012  -2.167  0.00  0.00     0.030 A 
ENDBRANCH   7   8
BRANCH   7  15
HETATM   15  C   UNK     0       5.452  -5.314   0.468  0.00  0.00    -0.029 A 
HETATM   16  C   UNK     0       4.179  -4.454   0.361  0.00  0.00     0.030 A 
HETATM   17  C   UNK     0       4.128  -3.066   1.027  0.00  0.00     0.056 A 
HETATM   18  C   UNK     0       5.350  -2.537   1.800  0.00  0.00     0.096 A 
HETATM   19  F   UNK     0       5.300  -1.149   2.465  0.00  0.00    -0.213 F 
HETATM   20  C   UNK     0       6.624  -3.397   1.907  0.00  0.00     0.056 A 
HETATM   21  C   UNK     0       6.675  -4.785   1.242  0.00  0.00     0.030 A 
ENDBRANCH   7  15
ENDBRANCH   1   7
BRANCH   2  22
HETATM   22  C   UNK     0       7.058 -11.654   3.119  0.00  0.00     0.097 C 
BRANCH  22  23
HETATM   23  C   UNK     0       8.129 -12.627   2.594  0.00  0.00     0.024 C 
BRANCH  23  24
HETATM   24  C   UNK     0       7.711 -13.876   1.796  0.00  0.00     0.002 C 
BRANCH  24  25
HETATM   25  C   UNK     0       8.784 -14.770   1.147  0.00  0.00     0.000 A 
HETATM   26  C   UNK     0      10.209 -14.228   0.929  0.00  0.00     0.000 A 
HETATM   27  C   UNK     0      11.282 -15.122   0.280  0.00  0.00     0.000 A 
HETATM   28  C   UNK     0      10.930 -16.559  -0.150  0.00  0.00     0.000 A 
HETATM   29  C   UNK     0       9.506 -17.101   0.068  0.00  0.00     0.000 A 
HETATM   30  C   UNK     0       8.432 -16.207   0.717  0.00  0.00     0.000 A 
ENDBRANCH  24  25
ENDBRANCH  23  24
ENDBRANCH  22  23
ENDBRANCH   2  22
TORSDOF 7
ENDMDL
MODEL 5
REMARK VINA RESULT:      -6.5      7.871     12.837
REMARK  7 active torsions:
REMARK  status: ('A' for Active; 'I' for Inactive)
REMARK    1  A    between atoms: N_3  and  C_7 
REMARK    2  A    between atoms: N_4  and  C_10 
REMARK    3  A    between atoms: C_7  and  C_11 
REMARK    4  A    between atoms: C_7  and  C_12 
REMARK    5  A    between atoms: C_10  and  C_13 
REMARK    6  A    between atoms: C_13  and  C_22 
REMARK    7  A    between atoms: C_22  and  C_25 
ROOT
HETATM    1  N   UNK     0      -0.494  -5.864  -9.140  0.00  0.00    -0.345 N 
HETATM    2  N   UNK     0       0.350  -7.936  -7.023  0.00  0.00    -0.365 N 
HETATM    3  C   UNK     0       0.338  -5.424  -7.921  0.00  0.00     0.125 A 
HETATM    4  C   UNK     0      -0.904  -7.340  -9.300  0.00  0.00     0.125 A 
HETATM    5  C   UNK     0       0.761  -6.460  -6.863  0.00  0.00     0.122 A 
HETATM    6  C   UNK     0      -0.481  -8.375  -8.241  0.00  0.00     0.122 A 
ENDROOT
BRANCH   1   7
HETATM    7  C   UNK     0      -0.916  -4.829 -10.199  0.00  0.00     0.040 C 
BRANCH   7   8
HETATM    8  C   UNK     0      -2.383  -4.756 -10.662  0.00  0.00    -0.029 A 
HETATM    9  C   UNK     0      -3.520  -4.759  -9.624  0.00  0.00     0.030 A 
HETATM   10  C   UNK     0      -4.987  -4.686 -10.086  0.00  0.00     0.056 A 
HETATM   11  C   UNK     0      -5.317  -4.610 -11.589  0.00  0.00     0.096 A 
HETATM   12  F   UNK     0      -6.784  -4.538 -12.053  0.00  0.00    -0.213 F 
HETATM   13  C   UNK     0      -4.180  -4.608 -12.628  0.00  0.00     0.056 A 
HETATM   14  C   UNK     0      -2.713  -4.680 -12.164  0.00  0.00     0.030 A 
ENDBRANCH   7   8
BRANCH   7  15
HETATM   15  C   UNK     0       0.127  -3.866 -10.794  0.00  0.00    -0.029 A 
HETATM   16  C   UNK     0       1.400  -4.425 -11.457  0.00  0.00     0.030 A 
HETATM   17  C   UNK     0       2.445  -3.462 -12.052  0.00  0.00     0.056 A 
HETATM   18  C   UNK     0       2.217  -1.941 -11.984  0.00  0.00     0.096 A 
HETATM   19  F   UNK     0       3.261  -0.978 -12.580  0.00  0.00    -0.213 F 
HETATM   20  C   UNK     0       0.944  -1.382 -11.321  0.00  0.00     0.056 A 
HETATM   21  C   UNK     0      -0.101  -2.345 -10.726  0.00  0.00     0.030 A 
ENDBRANCH   7  15
ENDBRANCH   1   7
BRANCH   2  22
HETATM   22  C   UNK     0       0.773  -8.971  -5.964  0.00  0.00     0.097 C 
BRANCH  22  23
HETATM   23  C   UNK     0       1.148  -8.512  -4.544  0.00  0.00     0.024 C 
BRANCH  23  24
HETATM   24  C   UNK     0       2.461  -8.994  -3.900  0.00  0.00     0.002 C 
BRANCH  24  25
HETATM   25  C   UNK     0       3.527  -7.971  -3.464  0.00  0.00     0.000 A 
HETATM   26  C   UNK     0       4.468  -8.293  -2.288  0.00  0.00     0.000 A 
HETATM   27  C   UNK     0       5.533  -7.270  -1.851  0.00  0.00     0.000 A 
HETATM   28  C   UNK     0       5.657  -5.925  -2.591  0.00  0.00     0.000 A 
HETATM   29  C   UNK     0       4.717  -5.602  -3.767  0.00  0.00     0.000 A 
HETATM   30  C   UNK     0       3.651  -6.626  -4.203  0.00  0.00     0.000 A 
ENDBRANCH  24  25
ENDBRANCH  23  24
ENDBRANCH  22  23
ENDBRANCH   2  22
TORSDOF 7
ENDMDL
MODEL 6
REMARK VINA RESULT:      -6.5      3.810     10.158
REMARK  7 active torsions:
REMARK  status: ('A' for Active; 'I' for Inactive)
REMARK    1  A    between atoms: N_3  and  C_7 
REMARK    2  A    between atoms: N_4  and  C_10 
REMARK    3  A    between atoms: C_7  and  C_11 
REMARK    4  A    between atoms: C_7  and  C_12 
REMARK    5  A    between atoms: C_10  and  C_13 
REMARK    6  A    between atoms: C_13  and  C_22 
REMARK    7  A    between atoms: C_22  and  C_25 
ROOT
HETATM    1  N   UNK     0       5.995  -8.123   0.441  0.00  0.00    -0.345 N 
HETATM    2  N   UNK     0       6.969 -10.615   1.968  0.00  0.00    -0.365 N 
HETATM    3  C   UNK     0       4.979  -9.037   1.153  0.00  0.00     0.125 A 
HETATM    4  C   UNK     0       7.497  -8.456   0.494  0.00  0.00     0.125 A 
HETATM    5  C   UNK     0       5.466 -10.282   1.916  0.00  0.00     0.122 A 
HETATM    6  C   UNK     0       7.984  -9.701   1.257  0.00  0.00     0.122 A 
ENDROOT
BRANCH   1   7
HETATM    7  C   UNK     0       5.508  -6.878  -0.322  0.00  0.00     0.040 C 
BRANCH   7   8
HETATM    8  C   UNK     0       5.140  -6.984  -1.814  0.00  0.00    -0.029 A 
HETATM    9  C   UNK     0       4.167  -8.079  -2.291  0.00  0.00     0.030 A 
HETATM   10  C   UNK     0       3.798  -8.186  -3.781  0.00  0.00     0.056 A 
HETATM   11  C   UNK     0       4.403  -7.197  -4.797  0.00  0.00     0.096 A 
HETATM   12  F   UNK     0       4.034  -7.304  -6.288  0.00  0.00    -0.213 F 
HETATM   13  C   UNK     0       5.375  -6.103  -4.320  0.00  0.00     0.056 A 
HETATM   14  C   UNK     0       5.744  -5.996  -2.828  0.00  0.00     0.030 A 
ENDBRANCH   7   8
BRANCH   7  15
HETATM   15  C   UNK     0       5.389  -5.526   0.405  0.00  0.00    -0.029 A 
HETATM   16  C   UNK     0       6.503  -5.069   1.367  0.00  0.00     0.030 A 
HETATM   17  C   UNK     0       6.384  -3.717   2.095  0.00  0.00     0.056 A 
HETATM   18  C   UNK     0       5.153  -2.822   1.861  0.00  0.00     0.096 A 
HETATM   19  F   UNK     0       5.034  -1.470   2.590  0.00  0.00    -0.213 F 
HETATM   20  C   UNK     0       4.040  -3.279   0.900  0.00  0.00     0.056 A 
HETATM   21  C   UNK     0       4.158  -4.632   0.172  0.00  0.00     0.030 A 
ENDBRANCH   7  15
ENDBRANCH   1   7
BRANCH   2  22
HETATM   22  C   UNK     0       7.456 -11.860   2.732  0.00  0.00     0.097 C 
BRANCH  22  23
HETATM   23  C   UNK     0       8.851 -12.444   2.442  0.00  0.00     0.024 C 
BRANCH  23  24
HETATM   24  C   UNK     0       9.222 -12.881   1.013  0.00  0.00     0.002 C 
BRANCH  24  25
HETATM   25  C   UNK     0       9.492 -14.367   0.708  0.00  0.00     0.000 A 
HETATM   26  C   UNK     0       8.334 -15.381   0.735  0.00  0.00     0.000 A 
HETATM   27  C   UNK     0       8.604 -16.866   0.429  0.00  0.00     0.000 A 
HETATM   28  C   UNK     0      10.032 -17.337   0.097  0.00  0.00     0.000 A 
HETATM   29  C   UNK     0      11.191 -16.323   0.070  0.00  0.00     0.000 A 
HETATM   30  C   UNK     0      10.920 -14.837   0.376  0.00  0.00     0.000 A 
ENDBRANCH  24  25
ENDBRANCH  23  24
ENDBRANCH  22  23
ENDBRANCH   2  22
TORSDOF 7
ENDMDL
MODEL 7
REMARK VINA RESULT:      -6.3      7.702     12.346
REMARK  7 active torsions:
REMARK  status: ('A' for Active; 'I' for Inactive)
REMARK    1  A    between atoms: N_3  and  C_7 
REMARK    2  A    between atoms: N_4  and  C_10 
REMARK    3  A    between atoms: C_7  and  C_11 
REMARK    4  A    between atoms: C_7  and  C_12 
REMARK    5  A    between atoms: C_10  and  C_13 
REMARK    6  A    between atoms: C_13  and  C_22 
REMARK    7  A    between atoms: C_22  and  C_25 
ROOT
HETATM    1  N   UNK     0      -0.316  -0.911   9.606  0.00  0.00    -0.345 N 
HETATM    2  N   UNK     0      -0.907   1.620  11.259  0.00  0.00    -0.365 N 
HETATM    3  C   UNK     0       0.823  -0.203  10.365  0.00  0.00     0.125 A 
HETATM    4  C   UNK     0      -1.749  -0.353   9.673  0.00  0.00     0.125 A 
HETATM    5  C   UNK     0       0.527   1.062  11.191  0.00  0.00     0.122 A 
HETATM    6  C   UNK     0      -2.045   0.912  10.500  0.00  0.00     0.122 A 
ENDROOT
BRANCH   1   7
HETATM    7  C   UNK     0      -0.020  -2.176   8.779  0.00  0.00     0.040 C 
BRANCH   7   8
HETATM    8  C   UNK     0       0.720  -2.060   7.433  0.00  0.00    -0.029 A 
HETATM    9  C   UNK     0      -0.075  -1.811   6.137  0.00  0.00     0.030 A 
HETATM   10  C   UNK     0       0.664  -1.696   4.791  0.00  0.00     0.056 A 
HETATM   11  C   UNK     0       2.197  -1.830   4.740  0.00  0.00     0.096 A 
HETATM   12  F   UNK     0       2.937  -1.714   3.394  0.00  0.00    -0.213 F 
HETATM   13  C   UNK     0       2.992  -2.079   6.036  0.00  0.00     0.056 A 
HETATM   14  C   UNK     0       2.252  -2.194   7.382  0.00  0.00     0.030 A 
ENDBRANCH   7   8
BRANCH   7  15
HETATM   15  C   UNK     0      -0.463  -3.556   9.298  0.00  0.00    -0.029 A 
HETATM   16  C   UNK     0      -1.737  -4.216   8.738  0.00  0.00     0.030 A 
HETATM   17  C   UNK     0      -2.180  -5.597   9.257  0.00  0.00     0.056 A 
HETATM   18  C   UNK     0      -1.350  -6.317  10.335  0.00  0.00     0.096 A 
HETATM   19  F   UNK     0      -1.794  -7.698  10.854  0.00  0.00    -0.213 F 
HETATM   20  C   UNK     0      -0.076  -5.657  10.895  0.00  0.00     0.056 A 
HETATM   21  C   UNK     0       0.368  -4.276  10.376  0.00  0.00     0.030 A 
ENDBRANCH   7  15
ENDBRANCH   1   7
BRANCH   2  22
HETATM   22  C   UNK     0      -1.203   2.885  12.086  0.00  0.00     0.097 C 
BRANCH  22  23
HETATM   23  C   UNK     0      -0.576   4.232  11.684  0.00  0.00     0.024 C 
BRANCH  23  24
HETATM   24  C   UNK     0      -1.269   5.122  10.635  0.00  0.00     0.002 C 
BRANCH  24  25
HETATM   25  C   UNK     0      -2.194   6.267  11.088  0.00  0.00     0.000 A 
HETATM   26  C   UNK     0      -3.100   6.083  12.319  0.00  0.00     0.000 A 
HETATM   27  C   UNK     0      -4.026   7.228  12.772  0.00  0.00     0.000 A 
HETATM   28  C   UNK     0      -4.046   8.556  11.993  0.00  0.00     0.000 A 
HETATM   29  C   UNK     0      -3.139   8.740  10.761  0.00  0.00     0.000 A 
HETATM   30  C   UNK     0      -2.214   7.595  10.308  0.00  0.00     0.000 A 
ENDBRANCH  24  25
ENDBRANCH  23  24
ENDBRANCH  22  23
ENDBRANCH   2  22
TORSDOF 7
ENDMDL
MODEL 8
REMARK VINA RESULT:      -6.2      6.852     11.668
REMARK  7 active torsions:
REMARK  status: ('A' for Active; 'I' for Inactive)
REMARK    1  A    between atoms: N_3  and  C_7 
REMARK    2  A    between atoms: N_4  and  C_10 
REMARK    3  A    between atoms: C_7  and  C_11 
REMARK    4  A    between atoms: C_7  and  C_12 
REMARK    5  A    between atoms: C_10  and  C_13 
REMARK    6  A    between atoms: C_13  and  C_22 
REMARK    7  A    between atoms: C_22  and  C_25 
ROOT
HETATM    1  N   UNK     0      -0.497  -3.849   8.899  0.00  0.00    -0.345 N 
HETATM    2  N   UNK     0      -1.141  -6.729   9.781  0.00  0.00    -0.365 N 
HETATM    3  C   UNK     0      -1.835  -4.497   8.496  0.00  0.00     0.125 A 
HETATM    4  C   UNK     0       0.518  -4.641   9.743  0.00  0.00     0.125 A 
HETATM    5  C   UNK     0      -2.157  -5.937   8.937  0.00  0.00     0.122 A 
HETATM    6  C   UNK     0       0.196  -6.081  10.184  0.00  0.00     0.122 A 
ENDROOT
BRANCH   1   7
HETATM    7  C   UNK     0      -0.175  -2.409   8.458  0.00  0.00     0.040 C 
BRANCH   7   8
HETATM    8  C   UNK     0      -0.689  -1.217   9.286  0.00  0.00    -0.029 A 
HETATM    9  C   UNK     0      -0.146   0.199   9.017  0.00  0.00     0.030 A 
HETATM   10  C   UNK     0      -0.660   1.391   9.845  0.00  0.00     0.056 A 
HETATM   11  C   UNK     0      -1.717   1.167  10.943  0.00  0.00     0.096 A 
HETATM   12  F   UNK     0      -2.231   2.359  11.772  0.00  0.00    -0.213 F 
HETATM   13  C   UNK     0      -2.259  -0.249  11.212  0.00  0.00     0.056 A 
HETATM   14  C   UNK     0      -1.745  -1.441  10.384  0.00  0.00     0.030 A 
ENDBRANCH   7   8
BRANCH   7  15
HETATM   15  C   UNK     0       0.660  -2.161   7.189  0.00  0.00    -0.029 A 
HETATM   16  C   UNK     0      -0.042  -1.873   5.849  0.00  0.00     0.030 A 
HETATM   17  C   UNK     0       0.793  -1.625   4.579  0.00  0.00     0.056 A 
HETATM   18  C   UNK     0       2.331  -1.665   4.649  0.00  0.00     0.096 A 
HETATM   19  F   UNK     0       3.167  -1.417   3.379  0.00  0.00    -0.213 F 
HETATM   20  C   UNK     0       3.034  -1.953   5.989  0.00  0.00     0.056 A 
HETATM   21  C   UNK     0       2.198  -2.201   7.259  0.00  0.00     0.030 A 
ENDBRANCH   7  15
ENDBRANCH   1   7
BRANCH   2  22
HETATM   22  C   UNK     0      -1.463  -8.169  10.222  0.00  0.00     0.097 C 
BRANCH  22  23
HETATM   23  C   UNK     0      -1.243  -9.340   9.248  0.00  0.00     0.024 C 
BRANCH  23  24
HETATM   24  C   UNK     0      -0.134  -9.258   8.183  0.00  0.00     0.002 C 
BRANCH  24  25
HETATM   25  C   UNK     0      -0.503  -9.073   6.699  0.00  0.00     0.000 A 
HETATM   26  C   UNK     0      -1.948  -8.711   6.305  0.00  0.00     0.000 A 
HETATM   27  C   UNK     0      -2.318  -8.526   4.821  0.00  0.00     0.000 A 
HETATM   28  C   UNK     0      -1.243  -8.702   3.732  0.00  0.00     0.000 A 
HETATM   29  C   UNK     0       0.201  -9.063   4.126  0.00  0.00     0.000 A 
HETATM   30  C   UNK     0       0.571  -9.249   5.609  0.00  0.00     0.000 A 
ENDBRANCH  24  25
ENDBRANCH  23  24
ENDBRANCH  22  23
ENDBRANCH   2  22
TORSDOF 7
ENDMDL
MODEL 9
REMARK VINA RESULT:      -6.0     17.184     21.845
REMARK  7 active torsions:
REMARK  status: ('A' for Active; 'I' for Inactive)
REMARK    1  A    between atoms: N_3  and  C_7 
REMARK    2  A    between atoms: N_4  and  C_10 
REMARK    3  A    between atoms: C_7  and  C_11 
REMARK    4  A    between atoms: C_7  and  C_12 
REMARK    5  A    between atoms: C_10  and  C_13 
REMARK    6  A    between atoms: C_13  and  C_22 
REMARK    7  A    between atoms: C_22  and  C_25 
ROOT
HETATM    1  N   UNK     0      -5.490   9.391  13.204  0.00  0.00    -0.345 N 
HETATM    2  N   UNK     0      -7.706   9.049  15.316  0.00  0.00    -0.365 N 
HETATM    3  C   UNK     0      -5.148   9.496  14.703  0.00  0.00     0.125 A 
HETATM    4  C   UNK     0      -6.938   9.115  12.763  0.00  0.00     0.125 A 
HETATM    5  C   UNK     0      -6.256   9.325  15.758  0.00  0.00     0.122 A 
HETATM    6  C   UNK     0      -8.046   8.945  13.818  0.00  0.00     0.122 A 
ENDROOT
BRANCH   1   7
HETATM    7  C   UNK     0      -4.382   9.562  12.149  0.00  0.00     0.040 C 
BRANCH   7   8
HETATM    8  C   UNK     0      -4.122  10.945  11.521  0.00  0.00    -0.029 A 
HETATM    9  C   UNK     0      -2.888  11.763  11.945  0.00  0.00     0.030 A 
HETATM   10  C   UNK     0      -2.629  13.145  11.318  0.00  0.00     0.056 A 
HETATM   11  C   UNK     0      -3.603  13.709  10.268  0.00  0.00     0.096 A 
HETATM   12  F   UNK     0      -3.344  15.092   9.640  0.00  0.00    -0.213 F 
HETATM   13  C   UNK     0      -4.837  12.891   9.844  0.00  0.00     0.056 A 
HETATM   14  C   UNK     0      -5.097  11.509  10.471  0.00  0.00     0.030 A 
ENDBRANCH   7   8
BRANCH   7  15
HETATM   15  C   UNK     0      -3.533   8.351  11.720  0.00  0.00    -0.029 A 
HETATM   16  C   UNK     0      -2.635   8.443  10.472  0.00  0.00     0.030 A 
HETATM   17  C   UNK     0      -1.786   7.232  10.043  0.00  0.00     0.056 A 
HETATM   18  C   UNK     0      -1.835   5.929  10.861  0.00  0.00     0.096 A 
HETATM   19  F   UNK     0      -0.986   4.717  10.432  0.00  0.00    -0.213 F 
HETATM   20  C   UNK     0      -2.733   5.836  12.109  0.00  0.00     0.056 A 
HETATM   21  C   UNK     0      -3.582   7.048  12.539  0.00  0.00     0.030 A 
ENDBRANCH   7  15
ENDBRANCH   1   7
BRANCH   2  22
HETATM   22  C   UNK     0      -8.814   8.879  16.372  0.00  0.00     0.097 C 
BRANCH  22  23
HETATM   23  C   UNK     0      -9.835   7.734  16.238  0.00  0.00     0.024 C 
BRANCH  23  24
HETATM   24  C   UNK     0      -9.369   6.334  15.796  0.00  0.00     0.002 C 
BRANCH  24  25
HETATM   25  C   UNK     0      -9.832   5.760  14.444  0.00  0.00     0.000 A 
HETATM   26  C   UNK     0      -9.390   4.349  14.014  0.00  0.00     0.000 A 
HETATM   27  C   UNK     0      -9.853   3.775  12.662  0.00  0.00     0.000 A 
HETATM   28  C   UNK     0     -10.758   4.613  11.739  0.00  0.00     0.000 A 
HETATM   29  C   UNK     0     -11.201   6.024  12.168  0.00  0.00     0.000 A 
HETATM   30  C   UNK     0     -10.738   6.598  13.521  0.00  0.00     0.000 A 
ENDBRANCH  24  25
ENDBRANCH  23  24
ENDBRANCH  22  23
ENDBRANCH   2  22
TORSDOF 7
ENDMDL
MODEL 10
REMARK VINA RESULT:      -6.0      7.429     11.372
REMARK  7 active torsions:
REMARK  status: ('A' for Active; 'I' for Inactive)
REMARK    1  A    between atoms: N_3  and  C_7 
REMARK    2  A    between atoms: N_4  and  C_10 
REMARK    3  A    between atoms: C_7  and  C_11 
REMARK    4  A    between atoms: C_7  and  C_12 
REMARK    5  A    between atoms: C_10  and  C_13 
REMARK    6  A    between atoms: C_13  and  C_22 
REMARK    7  A    between atoms: C_22  and  C_25 
ROOT
HETATM    1  N   UNK     0       5.227 -11.895  -8.726  0.00  0.00    -0.345 N 
HETATM    2  N   UNK     0       3.115  -9.840  -7.830  0.00  0.00    -0.365 N 
HETATM    3  C   UNK     0       5.669 -10.567  -8.083  0.00  0.00     0.125 A 
HETATM    4  C   UNK     0       3.729 -12.195  -8.920  0.00  0.00     0.125 A 
HETATM    5  C   UNK     0       4.613  -9.540  -7.635  0.00  0.00     0.122 A 
HETATM    6  C   UNK     0       2.673 -11.168  -8.472  0.00  0.00     0.122 A 
ENDROOT
BRANCH   1   7
HETATM    7  C   UNK     0       6.282 -12.923  -9.174  0.00  0.00     0.040 C 
BRANCH   7   8
HETATM    8  C   UNK     0       6.279 -14.342  -8.575  0.00  0.00    -0.029 A 
HETATM    9  C   UNK     0       7.433 -15.313  -8.886  0.00  0.00     0.030 A 
HETATM   10  C   UNK     0       7.430 -16.731  -8.288  0.00  0.00     0.056 A 
HETATM   11  C   UNK     0       6.271 -17.180  -7.378  0.00  0.00     0.096 A 
HETATM   12  F   UNK     0       6.267 -18.599  -6.779  0.00  0.00    -0.213 F 
HETATM   13  C   UNK     0       5.116 -16.209  -7.066  0.00  0.00     0.056 A 
HETATM   14  C   UNK     0       5.120 -14.790  -7.665  0.00  0.00     0.030 A 
ENDBRANCH   7   8
BRANCH   7  15
HETATM   15  C   UNK     0       7.342 -12.532 -10.220  0.00  0.00    -0.029 A 
HETATM   16  C   UNK     0       7.042 -12.704 -11.721  0.00  0.00     0.030 A 
HETATM   17  C   UNK     0       8.101 -12.314 -12.768  0.00  0.00     0.056 A 
HETATM   18  C   UNK     0       9.461 -11.751 -12.315  0.00  0.00     0.096 A 
HETATM   19  F   UNK     0      10.521 -11.360 -13.362  0.00  0.00    -0.213 F 
HETATM   20  C   UNK     0       9.761 -11.579 -10.814  0.00  0.00     0.056 A 
HETATM   21  C   UNK     0       8.702 -11.970  -9.766  0.00  0.00     0.030 A 
ENDBRANCH   7  15
ENDBRANCH   1   7
BRANCH   2  22
HETATM   22  C   UNK     0       2.059  -8.812  -7.382  0.00  0.00     0.097 C 
BRANCH  22  23
HETATM   23  C   UNK     0       1.953  -8.415  -5.898  0.00  0.00     0.024 C 
BRANCH  23  24
HETATM   24  C   UNK     0       2.573  -7.093  -5.409  0.00  0.00     0.002 C 
BRANCH  24  25
HETATM   25  C   UNK     0       3.552  -7.095  -4.220  0.00  0.00     0.000 A 
HETATM   26  C   UNK     0       4.449  -5.871  -3.959  0.00  0.00     0.000 A 
HETATM   27  C   UNK     0       5.428  -5.873  -2.770  0.00  0.00     0.000 A 
HETATM   28  C   UNK     0       5.511  -7.100  -1.842  0.00  0.00     0.000 A 
HETATM   29  C   UNK     0       4.614  -8.324  -2.103  0.00  0.00     0.000 A 
HETATM   30  C   UNK     0       3.634  -8.322  -3.292  0.00  0.00     0.000 A 
ENDBRANCH  24  25
ENDBRANCH  23  24
ENDBRANCH  22  23
ENDBRANCH   2  22
TORSDOF 7
ENDMDL
