MODEL 1
REMARK VINA RESULT:      -4.0      0.000      0.000
REMARK  3 active torsions:
REMARK  status: ('A' for Active; 'I' for Inactive)
REMARK    1  A    between atoms: N_1  and  C_2 
REMARK    2  A    between atoms: C_2  and  C_5 
REMARK    3  A    between atoms: C_2  and  C_6 
ROOT
HETATM    1  N   UNK     0       3.771  -7.272  -3.952  0.00  0.00    -0.311 N 
HETATM    2  C   UNK     0       4.167  -8.038  -2.677  0.00  0.00     0.171 A 
HETATM    3  C   UNK     0       4.369  -5.856  -3.861  0.00  0.00     0.108 A 
HETATM    4  C   UNK     0       5.009  -7.095  -1.797  0.00  0.00     0.075 A 
HETATM    5  O   UNK     0       3.787  -9.492  -2.340  0.00  0.00    -0.176 OA
HETATM    6  C   UNK     0       5.134  -5.747  -2.529  0.00  0.00     0.033 A 
ENDROOT
BRANCH   1   7
HETATM    7  C   UNK     0       2.926  -7.825  -5.115  0.00  0.00     0.077 C 
BRANCH   7   8
HETATM    8  C   UNK     0       1.428  -7.482  -5.209  0.00  0.00     0.212 C 
HETATM    9  N   UNK     0       0.940  -6.440  -6.233  0.00  0.00    -0.070 NA
HETATM   10  O   UNK     0       0.418  -8.181  -4.280  0.00  0.00    -0.174 OA
ENDBRANCH   7   8
BRANCH   7  11
HETATM   11  C   UNK     0       3.579  -8.722  -6.183  0.00  0.00     0.047 C 
HETATM   12  C   UNK     0       4.417  -8.090  -7.312  0.00  0.00     0.007 C 
ENDBRANCH   7  11
ENDBRANCH   1   7
TORSDOF 3
ENDMDL
MODEL 2
REMARK VINA RESULT:      -3.8      2.572      5.292
REMARK  3 active torsions:
REMARK  status: ('A' for Active; 'I' for Inactive)
REMARK    1  A    between atoms: N_1  and  C_2 
REMARK    2  A    between atoms: C_2  and  C_5 
REMARK    3  A    between atoms: C_2  and  C_6 
ROOT
HETATM    1  N   UNK     0       4.073  -7.669  -2.859  0.00  0.00    -0.311 N 
HETATM    2  C   UNK     0       3.968  -6.594  -3.955  0.00  0.00     0.171 A 
HETATM    3  C   UNK     0       3.238  -8.884  -3.303  0.00  0.00     0.108 A 
HETATM    4  C   UNK     0       3.068  -7.144  -5.077  0.00  0.00     0.075 A 
HETATM    5  O   UNK     0       4.645  -5.210  -3.933  0.00  0.00    -0.176 OA
HETATM    6  C   UNK     0       2.617  -8.559  -4.675  0.00  0.00     0.033 A 
ENDROOT
BRANCH   1   7
HETATM    7  C   UNK     0       4.872  -7.551  -1.548  0.00  0.00     0.077 C 
BRANCH   7   8
HETATM    8  C   UNK     0       5.186  -8.811  -0.721  0.00  0.00     0.212 C 
HETATM    9  N   UNK     0       4.241  -9.241   0.416  0.00  0.00    -0.070 NA
HETATM   10  O   UNK     0       6.445  -9.642  -1.031  0.00  0.00    -0.174 OA
ENDBRANCH   7   8
BRANCH   7  11
HETATM   11  C   UNK     0       5.358  -6.172  -1.063  0.00  0.00     0.047 C 
HETATM   12  C   UNK     0       4.952  -5.658   0.331  0.00  0.00     0.007 C 
ENDBRANCH   7  11
ENDBRANCH   1   7
TORSDOF 3
ENDMDL
MODEL 3
REMARK VINA RESULT:      -3.7     10.581     11.441
REMARK  3 active torsions:
REMARK  status: ('A' for Active; 'I' for Inactive)
REMARK    1  A    between atoms: N_1  and  C_2 
REMARK    2  A    between atoms: C_2  and  C_5 
REMARK    3  A    between atoms: C_2  and  C_6 
ROOT
HETATM    1  N   UNK     0      -4.215  -9.286   4.393  0.00  0.00    -0.311 N 
HETATM    2  C   UNK     0      -4.313  -8.358   5.617  0.00  0.00     0.171 A 
HETATM    3  C   UNK     0      -5.443 -10.215   4.402  0.00  0.00     0.108 A 
HETATM    4  C   UNK     0      -5.602  -8.713   6.382  0.00  0.00     0.075 A 
HETATM    5  O   UNK     0      -3.300  -7.265   6.008  0.00  0.00    -0.176 OA
HETATM    6  C   UNK     0      -6.300  -9.860   5.632  0.00  0.00     0.033 A 
ENDROOT
BRANCH   1   7
HETATM    7  C   UNK     0      -3.088  -9.286   3.345  0.00  0.00     0.077 C 
BRANCH   7   8
HETATM    8  C   UNK     0      -3.389  -8.884   1.890  0.00  0.00     0.212 C 
HETATM    9  N   UNK     0      -4.021  -9.904   0.924  0.00  0.00    -0.070 NA
HETATM   10  O   UNK     0      -3.059  -7.462   1.400  0.00  0.00    -0.174 OA
ENDBRANCH   7   8
BRANCH   7  11
HETATM   11  C   UNK     0      -1.658  -9.689   3.752  0.00  0.00     0.047 C 
HETATM   12  C   UNK     0      -0.493  -8.700   3.555  0.00  0.00     0.007 C 
ENDBRANCH   7  11
ENDBRANCH   1   7
TORSDOF 3
ENDMDL
MODEL 4
REMARK VINA RESULT:      -3.6     13.827     14.742
REMARK  3 active torsions:
REMARK  status: ('A' for Active; 'I' for Inactive)
REMARK    1  A    between atoms: N_1  and  C_2 
REMARK    2  A    between atoms: C_2  and  C_5 
REMARK    3  A    between atoms: C_2  and  C_6 
ROOT
HETATM    1  N   UNK     0      -5.446  -8.981   6.218  0.00  0.00    -0.311 N 
HETATM    2  C   UNK     0      -4.774  -9.232   4.856  0.00  0.00     0.171 A 
HETATM    3  C   UNK     0      -4.670  -7.859   6.933  0.00  0.00     0.108 A 
HETATM    4  C   UNK     0      -3.581  -8.265   4.729  0.00  0.00     0.075 A 
HETATM    5  O   UNK     0      -5.216 -10.268   3.806  0.00  0.00    -0.176 OA
HETATM    6  C   UNK     0      -3.517  -7.417   6.011  0.00  0.00     0.033 A 
ENDROOT
BRANCH   1   7
HETATM    7  C   UNK     0      -6.679  -9.722   6.769  0.00  0.00     0.077 C 
BRANCH   7   8
HETATM    8  C   UNK     0      -6.644 -10.326   8.185  0.00  0.00     0.212 C 
HETATM    9  N   UNK     0      -6.924  -9.435   9.409  0.00  0.00    -0.070 NA
HETATM   10  O   UNK     0      -6.330 -11.822   8.377  0.00  0.00    -0.174 OA
ENDBRANCH   7   8
BRANCH   7  11
HETATM   11  C   UNK     0      -7.946  -9.858   5.904  0.00  0.00     0.047 C 
HETATM   12  C   UNK     0      -9.269 -10.319   6.544  0.00  0.00     0.007 C 
ENDBRANCH   7  11
ENDBRANCH   1   7
TORSDOF 3
ENDMDL
MODEL 5
REMARK VINA RESULT:      -3.5      3.473      5.329
REMARK  3 active torsions:
REMARK  status: ('A' for Active; 'I' for Inactive)
REMARK    1  A    between atoms: N_1  and  C_2 
REMARK    2  A    between atoms: C_2  and  C_5 
REMARK    3  A    between atoms: C_2  and  C_6 
ROOT
HETATM    1  N   UNK     0       4.640  -7.661  -1.728  0.00  0.00    -0.311 N 
HETATM    2  C   UNK     0       5.060  -6.187  -1.592  0.00  0.00     0.171 A 
HETATM    3  C   UNK     0       4.043  -7.858  -3.134  0.00  0.00     0.108 A 
HETATM    4  C   UNK     0       4.723  -5.471  -2.914  0.00  0.00     0.075 A 
HETATM    5  O   UNK     0       5.705  -5.540  -0.352  0.00  0.00    -0.176 OA
HETATM    6  C   UNK     0       4.095  -6.504  -3.867  0.00  0.00     0.033 A 
ENDROOT
BRANCH   1   7
HETATM    7  C   UNK     0       4.791  -8.749  -0.649  0.00  0.00     0.077 C 
BRANCH   7   8
HETATM    8  C   UNK     0       4.852  -8.355   0.838  0.00  0.00     0.212 C 
HETATM    9  N   UNK     0       6.196  -8.392   1.590  0.00  0.00    -0.070 NA
HETATM   10  O   UNK     0       3.570  -7.923   1.574  0.00  0.00    -0.174 OA
ENDBRANCH   7   8
BRANCH   7  11
HETATM   11  C   UNK     0       4.880 -10.232  -1.056  0.00  0.00     0.047 C 
HETATM   12  C   UNK     0       6.184 -11.017  -0.825  0.00  0.00     0.007 C 
ENDBRANCH   7  11
ENDBRANCH   1   7
TORSDOF 3
ENDMDL
MODEL 6
REMARK VINA RESULT:      -3.4     27.054     28.424
REMARK  3 active torsions:
REMARK  status: ('A' for Active; 'I' for Inactive)
REMARK    1  A    between atoms: N_1  and  C_2 
REMARK    2  A    between atoms: C_2  and  C_5 
REMARK    3  A    between atoms: C_2  and  C_6 
ROOT
HETATM    1  N   UNK     0     -20.573   1.479   8.745  0.00  0.00    -0.311 N 
HETATM    2  C   UNK     0     -20.195   1.536  10.237  0.00  0.00     0.171 A 
HETATM    3  C   UNK     0     -20.788   2.922   8.254  0.00  0.00     0.108 A 
HETATM    4  C   UNK     0     -20.177   3.015  10.667  0.00  0.00     0.075 A 
HETATM    5  O   UNK     0     -19.890   0.326  11.140  0.00  0.00    -0.176 OA
HETATM    6  C   UNK     0     -20.543   3.871   9.442  0.00  0.00     0.033 A 
ENDROOT
BRANCH   1   7
HETATM    7  C   UNK     0     -20.711   0.202   7.895  0.00  0.00     0.077 C 
BRANCH   7   8
HETATM    8  C   UNK     0     -19.532  -0.277   7.029  0.00  0.00     0.212 C 
HETATM    9  N   UNK     0     -19.071   0.563   5.823  0.00  0.00    -0.070 NA
HETATM   10  O   UNK     0     -18.814  -1.596   7.368  0.00  0.00    -0.174 OA
ENDBRANCH   7   8
BRANCH   7  11
HETATM   11  C   UNK     0     -22.029  -0.594   7.910  0.00  0.00     0.047 C 
HETATM   12  C   UNK     0     -22.392  -1.460   9.131  0.00  0.00     0.007 C 
ENDBRANCH   7  11
ENDBRANCH   1   7
TORSDOF 3
ENDMDL
MODEL 7
REMARK VINA RESULT:      -3.3     13.254     14.179
REMARK  3 active torsions:
REMARK  status: ('A' for Active; 'I' for Inactive)
REMARK    1  A    between atoms: N_1  and  C_2 
REMARK    2  A    between atoms: C_2  and  C_5 
REMARK    3  A    between atoms: C_2  and  C_6 
ROOT
HETATM    1  N   UNK     0      -5.456  -9.720   5.075  0.00  0.00    -0.311 N 
HETATM    2  C   UNK     0      -4.850  -8.463   5.724  0.00  0.00     0.171 A 
HETATM    3  C   UNK     0      -4.614 -10.068   3.834  0.00  0.00     0.108 A 
HETATM    4  C   UNK     0      -3.632  -8.033   4.884  0.00  0.00     0.075 A 
HETATM    5  O   UNK     0      -5.369  -7.758   6.991  0.00  0.00    -0.176 OA
HETATM    6  C   UNK     0      -3.486  -9.025   3.716  0.00  0.00     0.033 A 
ENDROOT
BRANCH   1   7
HETATM    7  C   UNK     0      -6.689 -10.494   5.578  0.00  0.00     0.077 C 
BRANCH   7   8
HETATM    8  C   UNK     0      -6.575 -11.993   5.908  0.00  0.00     0.212 C 
HETATM    9  N   UNK     0      -5.778 -12.452   7.143  0.00  0.00    -0.070 NA
HETATM   10  O   UNK     0      -7.258 -13.035   5.002  0.00  0.00    -0.174 OA
ENDBRANCH   7   8
BRANCH   7  11
HETATM   11  C   UNK     0      -8.036  -9.767   5.752  0.00  0.00     0.047 C 
HETATM   12  C   UNK     0      -9.155 -10.411   6.592  0.00  0.00     0.007 C 
ENDBRANCH   7  11
ENDBRANCH   1   7
TORSDOF 3
ENDMDL
MODEL 8
REMARK VINA RESULT:      -3.3      5.965      8.009
REMARK  3 active torsions:
REMARK  status: ('A' for Active; 'I' for Inactive)
REMARK    1  A    between atoms: N_1  and  C_2 
REMARK    2  A    between atoms: C_2  and  C_5 
REMARK    3  A    between atoms: C_2  and  C_6 
ROOT
HETATM    1  N   UNK     0      -3.092  -8.427  -3.568  0.00  0.00    -0.311 N 
HETATM    2  C   UNK     0      -2.999  -7.016  -4.174  0.00  0.00     0.171 A 
HETATM    3  C   UNK     0      -1.703  -9.083  -3.674  0.00  0.00     0.108 A 
HETATM    4  C   UNK     0      -1.552  -6.799  -4.656  0.00  0.00     0.075 A 
HETATM    5  O   UNK     0      -4.151  -5.998  -4.281  0.00  0.00    -0.176 OA
HETATM    6  C   UNK     0      -0.751  -8.076  -4.347  0.00  0.00     0.033 A 
ENDROOT
BRANCH   1   7
HETATM    7  C   UNK     0      -4.353  -9.071  -2.962  0.00  0.00     0.077 C 
BRANCH   7   8
HETATM    8  C   UNK     0      -5.125 -10.144  -3.750  0.00  0.00     0.212 C 
HETATM    9  N   UNK     0      -5.442 -11.502  -3.095  0.00  0.00    -0.070 NA
HETATM   10  O   UNK     0      -5.580  -9.861  -5.194  0.00  0.00    -0.174 OA
ENDBRANCH   7   8
BRANCH   7  11
HETATM   11  C   UNK     0      -4.842  -8.640  -1.566  0.00  0.00     0.047 C 
HETATM   12  C   UNK     0      -4.275  -9.322  -0.307  0.00  0.00     0.007 C 
ENDBRANCH   7  11
ENDBRANCH   1   7
TORSDOF 3
ENDMDL
MODEL 9
REMARK VINA RESULT:      -3.2      5.283      7.078
REMARK  3 active torsions:
REMARK  status: ('A' for Active; 'I' for Inactive)
REMARK    1  A    between atoms: N_1  and  C_2 
REMARK    2  A    between atoms: C_2  and  C_5 
REMARK    3  A    between atoms: C_2  and  C_6 
ROOT
HETATM    1  N   UNK     0      -3.365  -8.391  -3.336  0.00  0.00    -0.311 N 
HETATM    2  C   UNK     0      -3.549  -9.405  -2.194  0.00  0.00     0.171 A 
HETATM    3  C   UNK     0      -4.720  -7.702  -3.584  0.00  0.00     0.108 A 
HETATM    4  C   UNK     0      -5.019  -9.344  -1.735  0.00  0.00     0.075 A 
HETATM    5  O   UNK     0      -2.456 -10.322  -1.612  0.00  0.00    -0.176 OA
HETATM    6  C   UNK     0      -5.742  -8.292  -2.594  0.00  0.00     0.033 A 
ENDROOT
BRANCH   1   7
HETATM    7  C   UNK     0      -2.056  -8.113  -4.098  0.00  0.00     0.077 C 
BRANCH   7   8
HETATM    8  C   UNK     0      -1.102  -9.272  -4.438  0.00  0.00     0.212 C 
HETATM    9  N   UNK     0      -1.416 -10.207  -5.621  0.00  0.00    -0.070 NA
HETATM   10  O   UNK     0       0.167  -9.497  -3.595  0.00  0.00    -0.174 OA
ENDBRANCH   7   8
BRANCH   7  11
HETATM   11  C   UNK     0      -1.701  -6.674  -4.521  0.00  0.00     0.047 C 
HETATM   12  C   UNK     0      -1.266  -6.382  -5.969  0.00  0.00     0.007 C 
ENDBRANCH   7  11
ENDBRANCH   1   7
TORSDOF 3
ENDMDL
MODEL 10
REMARK VINA RESULT:      -3.2      4.010      6.406
REMARK  3 active torsions:
REMARK  status: ('A' for Active; 'I' for Inactive)
REMARK    1  A    between atoms: N_1  and  C_2 
REMARK    2  A    between atoms: C_2  and  C_5 
REMARK    3  A    between atoms: C_2  and  C_6 
ROOT
HETATM    1  N   UNK     0       4.812  -7.573  -0.580  0.00  0.00    -0.311 N 
HETATM    2  C   UNK     0       5.156  -6.087  -0.782  0.00  0.00     0.171 A 
HETATM    3  C   UNK     0       4.442  -8.167  -1.952  0.00  0.00     0.108 A 
HETATM    4  C   UNK     0       4.998  -5.761  -2.280  0.00  0.00     0.075 A 
HETATM    5  O   UNK     0       5.584  -5.099   0.319  0.00  0.00    -0.176 OA
HETATM    6  C   UNK     0       4.557  -7.046  -3.002  0.00  0.00     0.033 A 
ENDROOT
BRANCH   1   7
HETATM    7  C   UNK     0       4.835  -8.334   0.759  0.00  0.00     0.077 C 
BRANCH   7   8
HETATM    8  C   UNK     0       5.730  -9.575   0.925  0.00  0.00     0.212 C 
HETATM    9  N   UNK     0       5.529 -10.515   2.128  0.00  0.00    -0.070 NA
HETATM   10  O   UNK     0       6.827  -9.877  -0.113  0.00  0.00    -0.174 OA
ENDBRANCH   7   8
BRANCH   7  11
HETATM   11  C   UNK     0       3.962  -7.852   1.933  0.00  0.00     0.047 C 
HETATM   12  C   UNK     0       2.599  -8.517   2.202  0.00  0.00     0.007 C 
ENDBRANCH   7  11
ENDBRANCH   1   7
TORSDOF 3
ENDMDL
