MODEL 1
REMARK VINA RESULT:      -4.8      0.000      0.000
REMARK  1 active torsions:
REMARK  status: ('A' for Active; 'I' for Inactive)
REMARK    1  A    between atoms: C_10  and  C_11 
ROOT
HETATM    1  N   UNK     0       6.304  -8.066  -0.265  0.00  0.00    -0.348 N 
HETATM    2  C   UNK     0       5.155  -6.256  -1.552  0.00  0.00     0.021 A 
HETATM    3  C   UNK     0       5.716  -7.110  -0.826  0.00  0.00     0.083 A 
HETATM    4  C   UNK     0       4.757  -4.560   1.385  0.00  0.00     0.004 A 
HETATM    5  C   UNK     0       5.301  -5.672   1.188  0.00  0.00     0.019 A 
HETATM    6  C   UNK     0       4.103  -3.624   0.352  0.00  0.00     0.002 A 
HETATM    7  C   UNK     0       5.390  -5.036   3.742  0.00  0.00     0.000 A 
HETATM    8  C   UNK     0       5.934  -6.148   3.544  0.00  0.00     0.002 A 
HETATM    9  C   UNK     0       4.633  -5.525  -2.426  0.00  0.00     0.004 A 
HETATM   10  C   UNK     0       5.272  -6.833  -2.659  0.00  0.00     0.024 A 
HETATM   11  C   UNK     0       6.009  -7.954  -1.706  0.00  0.00     0.100 A 
HETATM   12  C   UNK     0       6.496  -8.045   0.973  0.00  0.00     0.090 C 
ENDROOT
TORSDOF 1
ENDMDL
MODEL 2
REMARK VINA RESULT:      -4.6      3.705      5.059
REMARK  1 active torsions:
REMARK  status: ('A' for Active; 'I' for Inactive)
REMARK    1  A    between atoms: C_10  and  C_11 
ROOT
HETATM    1  N   UNK     0       2.045  -9.816  -3.113  0.00  0.00    -0.348 N 
HETATM    2  C   UNK     0       2.386  -7.801  -4.555  0.00  0.00     0.021 A 
HETATM    3  C   UNK     0       2.299  -8.789  -3.787  0.00  0.00     0.083 A 
HETATM    4  C   UNK     0       5.299  -7.215  -2.872  0.00  0.00     0.004 A 
HETATM    5  C   UNK     0       4.471  -8.142  -2.710  0.00  0.00     0.019 A 
HETATM    6  C   UNK     0       5.244  -6.058  -3.886  0.00  0.00     0.002 A 
HETATM    7  C   UNK     0       6.473  -8.380  -1.015  0.00  0.00     0.000 A 
HETATM    8  C   UNK     0       5.645  -9.307  -0.853  0.00  0.00     0.002 A 
HETATM    9  C   UNK     0       2.301  -6.876  -5.396  0.00  0.00     0.004 A 
HETATM   10  C   UNK     0       1.327  -7.966  -5.206  0.00  0.00     0.024 A 
HETATM   11  C   UNK     0       1.214  -9.263  -4.199  0.00  0.00     0.100 A 
HETATM   12  C   UNK     0       2.834 -10.186  -2.213  0.00  0.00     0.090 C 
ENDROOT
TORSDOF 1
ENDMDL
MODEL 3
REMARK VINA RESULT:      -4.6      2.107      4.985
REMARK  1 active torsions:
REMARK  status: ('A' for Active; 'I' for Inactive)
REMARK    1  A    between atoms: C_10  and  C_11 
ROOT
HETATM    1  N   UNK     0       5.204  -5.908   0.878  0.00  0.00    -0.348 N 
HETATM    2  C   UNK     0       4.131  -8.166   0.903  0.00  0.00     0.021 A 
HETATM    3  C   UNK     0       4.674  -7.041   0.793  0.00  0.00     0.083 A 
HETATM    4  C   UNK     0       4.390  -8.216  -2.501  0.00  0.00     0.004 A 
HETATM    5  C   UNK     0       4.748  -7.321  -1.699  0.00  0.00     0.019 A 
HETATM    6  C   UNK     0       3.723  -9.567  -2.184  0.00  0.00     0.002 A 
HETATM    7  C   UNK     0       5.289  -6.615  -4.178  0.00  0.00     0.000 A 
HETATM    8  C   UNK     0       5.646  -5.720  -3.376  0.00  0.00     0.002 A 
HETATM    9  C   UNK     0       3.589  -9.255   1.206  0.00  0.00     0.004 A 
HETATM   10  C   UNK     0       4.010  -8.203   2.150  0.00  0.00     0.024 A 
HETATM   11  C   UNK     0       4.722  -6.727   2.005  0.00  0.00     0.100 A 
HETATM   12  C   UNK     0       5.574  -5.309  -0.159  0.00  0.00     0.090 C 
ENDROOT
TORSDOF 1
ENDMDL
MODEL 4
REMARK VINA RESULT:      -4.5      9.883     11.345
REMARK  1 active torsions:
REMARK  status: ('A' for Active; 'I' for Inactive)
REMARK    1  A    between atoms: C_10  and  C_11 
ROOT
HETATM    1  N   UNK     0       6.616   3.247  -6.361  0.00  0.00    -0.348 N 
HETATM    2  C   UNK     0       6.605   2.896  -3.885  0.00  0.00     0.021 A 
HETATM    3  C   UNK     0       6.704   3.042  -5.126  0.00  0.00     0.083 A 
HETATM    4  C   UNK     0       9.860   1.889  -4.116  0.00  0.00     0.004 A 
HETATM    5  C   UNK     0       9.088   2.266  -5.028  0.00  0.00     0.019 A 
HETATM    6  C   UNK     0       9.565   1.768  -2.609  0.00  0.00     0.002 A 
HETATM    7  C   UNK     0      11.454   1.651  -6.010  0.00  0.00     0.000 A 
HETATM    8  C   UNK     0      10.681   2.028  -6.922  0.00  0.00     0.002 A 
HETATM    9  C   UNK     0       6.322   2.812  -2.667  0.00  0.00     0.004 A 
HETATM   10  C   UNK     0       5.413   3.256  -3.740  0.00  0.00     0.024 A 
HETATM   11  C   UNK     0       5.543   3.447  -5.369  0.00  0.00     0.100 A 
HETATM   12  C   UNK     0       7.603   3.037  -7.104  0.00  0.00     0.090 C 
ENDROOT
TORSDOF 1
ENDMDL
MODEL 5
REMARK VINA RESULT:      -4.4      8.198     10.225
REMARK  1 active torsions:
REMARK  status: ('A' for Active; 'I' for Inactive)
REMARK    1  A    between atoms: C_10  and  C_11 
ROOT
HETATM    1  N   UNK     0       0.780  -3.250   9.523  0.00  0.00    -0.348 N 
HETATM    2  C   UNK     0      -0.997  -2.805   7.822  0.00  0.00     0.021 A 
HETATM    3  C   UNK     0      -0.040  -2.999   8.608  0.00  0.00     0.083 A 
HETATM    4  C   UNK     0       1.459  -1.835   5.657  0.00  0.00     0.004 A 
HETATM    5  C   UNK     0       1.568  -2.240   6.838  0.00  0.00     0.019 A 
HETATM    6  C   UNK     0       0.174  -1.654   4.828  0.00  0.00     0.002 A 
HETATM    7  C   UNK     0       3.935  -1.682   5.826  0.00  0.00     0.000 A 
HETATM    8  C   UNK     0       4.044  -2.087   7.008  0.00  0.00     0.002 A 
HETATM    9  C   UNK     0      -2.067  -2.672   7.184  0.00  0.00     0.004 A 
HETATM   10  C   UNK     0      -1.940  -3.149   8.573  0.00  0.00     0.024 A 
HETATM   11  C   UNK     0      -0.684  -3.404   9.605  0.00  0.00     0.100 A 
HETATM   12  C   UNK     0       2.007  -3.077   9.330  0.00  0.00     0.090 C 
ENDROOT
TORSDOF 1
ENDMDL
MODEL 6
REMARK VINA RESULT:      -4.3      3.862      5.268
REMARK  1 active torsions:
REMARK  status: ('A' for Active; 'I' for Inactive)
REMARK    1  A    between atoms: C_10  and  C_11 
ROOT
HETATM    1  N   UNK     0       1.712  -9.352  -3.894  0.00  0.00    -0.348 N 
HETATM    2  C   UNK     0       3.391  -7.501  -3.994  0.00  0.00     0.021 A 
HETATM    3  C   UNK     0       2.601  -8.467  -3.869  0.00  0.00     0.083 A 
HETATM    4  C   UNK     0       5.030  -8.984  -1.390  0.00  0.00     0.004 A 
HETATM    5  C   UNK     0       3.983  -9.354  -1.972  0.00  0.00     0.019 A 
HETATM    6  C   UNK     0       5.892  -7.741  -1.681  0.00  0.00     0.002 A 
HETATM    7  C   UNK     0       4.620 -11.038  -0.050  0.00  0.00     0.000 A 
HETATM    8  C   UNK     0       3.573 -11.407  -0.632  0.00  0.00     0.002 A 
HETATM    9  C   UNK     0       4.064  -6.479  -4.265  0.00  0.00     0.004 A 
HETATM   10  C   UNK     0       2.832  -6.913  -4.950  0.00  0.00     0.024 A 
HETATM   11  C   UNK     0       1.796  -8.181  -4.786  0.00  0.00     0.100 A 
HETATM   12  C   UNK     0       1.752 -10.303  -3.079  0.00  0.00     0.090 C 
ENDROOT
TORSDOF 1
ENDMDL
MODEL 7
REMARK VINA RESULT:      -4.2     16.532     18.711
REMARK  1 active torsions:
REMARK  status: ('A' for Active; 'I' for Inactive)
REMARK    1  A    between atoms: C_10  and  C_11 
ROOT
HETATM    1  N   UNK     0       1.519   9.760  10.500  0.00  0.00    -0.348 N 
HETATM    2  C   UNK     0       1.761   7.331   9.957  0.00  0.00     0.021 A 
HETATM    3  C   UNK     0       1.543   8.533  10.241  0.00  0.00     0.083 A 
HETATM    4  C   UNK     0      -1.607   6.998  10.411  0.00  0.00     0.004 A 
HETATM    5  C   UNK     0      -0.899   8.027  10.515  0.00  0.00     0.019 A 
HETATM    6  C   UNK     0      -1.163   5.570  10.045  0.00  0.00     0.002 A 
HETATM    7  C   UNK     0      -3.423   8.583  11.022  0.00  0.00     0.000 A 
HETATM    8  C   UNK     0      -2.714   9.612  11.126  0.00  0.00     0.002 A 
HETATM    9  C   UNK     0       2.166   6.184   9.656  0.00  0.00     0.004 A 
HETATM   10  C   UNK     0       3.000   7.394   9.778  0.00  0.00     0.024 A 
HETATM   11  C   UNK     0       2.714   8.971  10.150  0.00  0.00     0.100 A 
HETATM   12  C   UNK     0       0.434  10.320  10.784  0.00  0.00     0.090 C 
ENDROOT
TORSDOF 1
ENDMDL
MODEL 8
REMARK VINA RESULT:      -4.2      6.594      8.502
REMARK  1 active torsions:
REMARK  status: ('A' for Active; 'I' for Inactive)
REMARK    1  A    between atoms: C_10  and  C_11 
ROOT
HETATM    1  N   UNK     0       1.879  -2.557   8.122  0.00  0.00    -0.348 N 
HETATM    2  C   UNK     0       1.083  -1.970   5.825  0.00  0.00     0.021 A 
HETATM    3  C   UNK     0       1.572  -2.273   6.939  0.00  0.00     0.083 A 
HETATM    4  C   UNK     0       4.299  -2.317   4.732  0.00  0.00     0.004 A 
HETATM    5  C   UNK     0       3.843  -2.464   5.890  0.00  0.00     0.019 A 
HETATM    6  C   UNK     0       3.535  -1.934   3.450  0.00  0.00     0.002 A 
HETATM    7  C   UNK     0       6.439  -2.908   5.852  0.00  0.00     0.000 A 
HETATM    8  C   UNK     0       5.983  -3.055   7.010  0.00  0.00     0.002 A 
HETATM    9  C   UNK     0       0.423  -1.657   4.808  0.00  0.00     0.004 A 
HETATM   10  C   UNK     0      -0.114  -1.829   6.170  0.00  0.00     0.024 A 
HETATM   11  C   UNK     0       0.528  -2.226   7.632  0.00  0.00     0.100 A 
HETATM   12  C   UNK     0       3.068  -2.821   8.415  0.00  0.00     0.090 C 
ENDROOT
TORSDOF 1
ENDMDL
MODEL 9
REMARK VINA RESULT:      -4.0      8.319      9.795
REMARK  1 active torsions:
REMARK  status: ('A' for Active; 'I' for Inactive)
REMARK    1  A    between atoms: C_10  and  C_11 
ROOT
HETATM    1  N   UNK     0      -2.091 -10.191  -2.921  0.00  0.00    -0.348 N 
HETATM    2  C   UNK     0      -4.083  -8.683  -3.042  0.00  0.00     0.021 A 
HETATM    3  C   UNK     0      -3.036  -9.373  -3.036  0.00  0.00     0.083 A 
HETATM    4  C   UNK     0      -2.221  -6.544  -4.944  0.00  0.00     0.004 A 
HETATM    5  C   UNK     0      -1.887  -7.643  -4.443  0.00  0.00     0.019 A 
HETATM    6  C   UNK     0      -3.582  -5.829  -4.848  0.00  0.00     0.002 A 
HETATM    7  C   UNK     0       0.119  -6.586  -5.784  0.00  0.00     0.000 A 
HETATM    8  C   UNK     0       0.453  -7.686  -5.283  0.00  0.00     0.002 A 
HETATM    9  C   UNK     0      -5.206  -8.136  -2.938  0.00  0.00     0.004 A 
HETATM   10  C   UNK     0      -4.813  -9.429  -2.348  0.00  0.00     0.024 A 
HETATM   11  C   UNK     0      -3.439 -10.335  -2.341  0.00  0.00     0.100 A 
HETATM   12  C   UNK     0      -0.987  -9.953  -3.463  0.00  0.00     0.090 C 
ENDROOT
TORSDOF 1
ENDMDL
MODEL 10
REMARK VINA RESULT:      -3.9      8.557      9.607
REMARK  1 active torsions:
REMARK  status: ('A' for Active; 'I' for Inactive)
REMARK    1  A    between atoms: C_10  and  C_11 
ROOT
HETATM    1  N   UNK     0      -0.036  -9.153   7.144  0.00  0.00    -0.348 N 
HETATM    2  C   UNK     0      -0.122  -8.962   4.652  0.00  0.00     0.021 A 
HETATM    3  C   UNK     0      -0.175  -9.036   5.903  0.00  0.00     0.083 A 
HETATM    4  C   UNK     0      -3.446  -8.228   4.925  0.00  0.00     0.004 A 
HETATM    5  C   UNK     0      -2.620  -8.478   5.834  0.00  0.00     0.019 A 
HETATM    6  C   UNK     0      -3.203  -8.178   3.405  0.00  0.00     0.002 A 
HETATM    7  C   UNK     0      -5.003  -8.007   6.851  0.00  0.00     0.000 A 
HETATM    8  C   UNK     0      -4.177  -8.257   7.760  0.00  0.00     0.002 A 
HETATM    9  C   UNK     0       0.120  -8.932   3.423  0.00  0.00     0.004 A 
HETATM   10  C   UNK     0       1.092  -9.226   4.491  0.00  0.00     0.024 A 
HETATM   11  C   UNK     0       1.023  -9.324   6.133  0.00  0.00     0.100 A 
HETATM   12  C   UNK     0      -1.018  -8.983   7.904  0.00  0.00     0.090 C 
ENDROOT
TORSDOF 1
ENDMDL
