MODEL 1
REMARK VINA RESULT:      -5.5      0.000      0.000
REMARK  1 active torsions:
REMARK  status: ('A' for Active; 'I' for Inactive)
REMARK    1  A    between atoms: C_10  and  C_15 
ROOT
HETATM    1 Cl   UNK     0       9.369  -7.259   2.937  0.00  0.00    -0.091 Cl
HETATM    2  N   UNK     0       6.412  -1.799   2.195  0.00  0.00    -0.300 N 
HETATM    3  N   UNK     0       4.068  -3.724   0.528  0.00  0.00    -0.243 NA
HETATM    4  N   UNK     0       6.196   0.651   2.495  0.00  0.00    -0.251 NA
HETATM    5  C   UNK     0       7.005  -3.217   2.288  0.00  0.00     0.040 A 
HETATM    6  C   UNK     0       5.100  -1.349   1.526  0.00  0.00     0.086 A 
HETATM    7  C   UNK     0       6.433  -4.536   1.735  0.00  0.00     0.012 A 
HETATM    8  C   UNK     0       4.057  -2.206   0.784  0.00  0.00     0.114 A 
HETATM    9  C   UNK     0       5.126  -4.761   0.951  0.00  0.00     0.077 A 
HETATM   10  C   UNK     0       7.084  -0.560   2.792  0.00  0.00     0.120 A 
HETATM   11  C   UNK     0       4.973   0.165   1.715  0.00  0.00     0.172 A 
HETATM   12  C   UNK     0       8.397  -3.195   3.085  0.00  0.00     0.049 A 
HETATM   13  C   UNK     0       7.213  -5.922   1.940  0.00  0.00     0.062 A 
HETATM   14  C   UNK     0       8.420  -0.536   3.557  0.00  0.00     0.072 C 
HETATM   15  C   UNK     0       9.204  -4.563   3.308  0.00  0.00     0.040 A 
HETATM   16  C   UNK     0       8.608  -5.936   2.732  0.00  0.00     0.018 A 
ENDROOT
BRANCH   9  17
HETATM   17  C   UNK     0       4.839  -6.216   0.537  0.00  0.00     0.018 A 
HETATM   18  C   UNK     0       5.182  -6.692  -0.888  0.00  0.00     0.115 A 
HETATM   19  F   UNK     0       5.811  -5.713  -1.897  0.00  0.00    -0.209 F 
HETATM   20  C   UNK     0       4.895  -8.147  -1.303  0.00  0.00     0.056 A 
HETATM   21  C   UNK     0       4.266  -9.126  -0.294  0.00  0.00     0.007 A 
HETATM   22  C   UNK     0       3.924  -8.650   1.129  0.00  0.00     0.005 A 
HETATM   23  C   UNK     0       4.210  -7.195   1.545  0.00  0.00     0.030 A 
ENDBRANCH   9  17
TORSDOF 1
ENDMDL
MODEL 2
REMARK VINA RESULT:      -5.3     15.251     17.116
REMARK  1 active torsions:
REMARK  status: ('A' for Active; 'I' for Inactive)
REMARK    1  A    between atoms: C_10  and  C_15 
ROOT
HETATM    1 Cl   UNK     0      -4.843   8.574 -10.043  0.00  0.00    -0.091 Cl
HETATM    2  N   UNK     0       1.247   8.305  -8.647  0.00  0.00    -0.300 N 
HETATM    3  N   UNK     0       0.565   4.975  -7.995  0.00  0.00    -0.243 NA
HETATM    4  N   UNK     0       3.499   9.308  -8.396  0.00  0.00    -0.251 NA
HETATM    5  C   UNK     0      -0.259   8.198  -8.951  0.00  0.00     0.040 A 
HETATM    6  C   UNK     0       2.211   7.203  -8.171  0.00  0.00     0.086 A 
HETATM    7  C   UNK     0      -1.173   6.962  -8.853  0.00  0.00     0.012 A 
HETATM    8  C   UNK     0       1.908   5.721  -7.881  0.00  0.00     0.114 A 
HETATM    9  C   UNK     0      -0.806   5.527  -8.428  0.00  0.00     0.077 A 
HETATM   10  C   UNK     0       2.047   9.602  -8.784  0.00  0.00     0.120 A 
HETATM   11  C   UNK     0       3.600   7.829  -8.018  0.00  0.00     0.172 A 
HETATM   12  C   UNK     0      -0.842   9.617  -9.419  0.00  0.00     0.049 A 
HETATM   13  C   UNK     0      -2.732   7.060  -9.217  0.00  0.00     0.062 A 
HETATM   14  C   UNK     0       1.490  10.965  -9.233  0.00  0.00     0.072 C 
HETATM   15  C   UNK     0      -2.396   9.751  -9.791  0.00  0.00     0.040 A 
HETATM   16  C   UNK     0      -3.348   8.463  -9.690  0.00  0.00     0.018 A 
ENDROOT
BRANCH   9  17
HETATM   17  C   UNK     0      -1.963   4.512  -8.437  0.00  0.00     0.018 A 
HETATM   18  C   UNK     0      -2.281   3.719  -9.719  0.00  0.00     0.115 A 
HETATM   19  F   UNK     0      -1.441   3.941 -10.991  0.00  0.00    -0.209 F 
HETATM   20  C   UNK     0      -3.438   2.703  -9.729  0.00  0.00     0.056 A 
HETATM   21  C   UNK     0      -4.278   2.480  -8.457  0.00  0.00     0.007 A 
HETATM   22  C   UNK     0      -3.960   3.273  -7.176  0.00  0.00     0.005 A 
HETATM   23  C   UNK     0      -2.803   4.289  -7.166  0.00  0.00     0.030 A 
ENDBRANCH   9  17
TORSDOF 1
ENDMDL
MODEL 3
REMARK VINA RESULT:      -5.0     15.982     18.739
REMARK  1 active torsions:
REMARK  status: ('A' for Active; 'I' for Inactive)
REMARK    1  A    between atoms: C_10  and  C_15 
ROOT
HETATM    1 Cl   UNK     0      -0.549  10.758  -9.420  0.00  0.00    -0.091 Cl
HETATM    2  N   UNK     0      -4.554   6.201 -10.934  0.00  0.00    -0.300 N 
HETATM    3  N   UNK     0      -1.834   4.137 -10.367  0.00  0.00    -0.243 NA
HETATM    4  N   UNK     0      -6.780   5.360 -11.625  0.00  0.00    -0.251 NA
HETATM    5  C   UNK     0      -3.446   7.195 -10.539  0.00  0.00     0.040 A 
HETATM    6  C   UNK     0      -4.472   4.668 -11.049  0.00  0.00     0.086 A 
HETATM    7  C   UNK     0      -1.982   6.901 -10.160  0.00  0.00     0.012 A 
HETATM    8  C   UNK     0      -3.261   3.749 -10.796  0.00  0.00     0.114 A 
HETATM    9  C   UNK     0      -1.265   5.540 -10.084  0.00  0.00     0.077 A 
HETATM   10  C   UNK     0      -5.981   6.623 -11.291  0.00  0.00     0.120 A 
HETATM   11  C   UNK     0      -5.849   4.155 -11.475  0.00  0.00     0.172 A 
HETATM   12  C   UNK     0      -4.005   8.699 -10.559  0.00  0.00     0.049 A 
HETATM   13  C   UNK     0      -0.976   8.090  -9.776  0.00  0.00     0.062 A 
HETATM   14  C   UNK     0      -6.519   8.065 -11.311  0.00  0.00     0.072 C 
HETATM   15  C   UNK     0      -3.026   9.912 -10.180  0.00  0.00     0.040 A 
HETATM   16  C   UNK     0      -1.502   9.605  -9.786  0.00  0.00     0.018 A 
ENDROOT
BRANCH   9  17
HETATM   17  C   UNK     0       0.218   5.589  -9.670  0.00  0.00     0.018 A 
HETATM   18  C   UNK     0       0.618   5.305  -8.210  0.00  0.00     0.115 A 
HETATM   19  F   UNK     0      -0.463   4.972  -7.165  0.00  0.00    -0.209 F 
HETATM   20  C   UNK     0       2.100   5.354  -7.795  0.00  0.00     0.056 A 
HETATM   21  C   UNK     0       3.182   5.687  -8.839  0.00  0.00     0.007 A 
HETATM   22  C   UNK     0       2.781   5.971 -10.298  0.00  0.00     0.005 A 
HETATM   23  C   UNK     0       1.299   5.922 -10.714  0.00  0.00     0.030 A 
ENDBRANCH   9  17
TORSDOF 1
ENDMDL
MODEL 4
REMARK VINA RESULT:      -5.0     25.413     27.237
REMARK  1 active torsions:
REMARK  status: ('A' for Active; 'I' for Inactive)
REMARK    1  A    between atoms: C_10  and  C_15 
ROOT
HETATM    1 Cl   UNK     0     -16.206  11.882  -7.062  0.00  0.00    -0.091 Cl
HETATM    2  N   UNK     0     -12.917  12.694  -1.806  0.00  0.00    -0.300 N 
HETATM    3  N   UNK     0     -15.610  11.106  -0.322  0.00  0.00    -0.243 NA
HETATM    4  N   UNK     0     -10.937  13.485  -0.542  0.00  0.00    -0.251 NA
HETATM    5  C   UNK     0     -13.850  12.416  -2.999  0.00  0.00     0.040 A 
HETATM    6  C   UNK     0     -13.129  12.350  -0.321  0.00  0.00     0.086 A 
HETATM    7  C   UNK     0     -15.227  11.725  -3.001  0.00  0.00     0.012 A 
HETATM    8  C   UNK     0     -14.328  11.644   0.340  0.00  0.00     0.114 A 
HETATM    9  C   UNK     0     -16.010  11.142  -1.808  0.00  0.00     0.077 A 
HETATM   10  C   UNK     0     -11.562  13.394  -1.937  0.00  0.00     0.120 A 
HETATM   11  C   UNK     0     -11.904  12.842   0.454  0.00  0.00     0.172 A 
HETATM   12  C   UNK     0     -13.201  12.959  -4.362  0.00  0.00     0.049 A 
HETATM   13  C   UNK     0     -16.049  11.530  -4.364  0.00  0.00     0.062 A 
HETATM   14  C   UNK     0     -10.937  13.916  -3.244  0.00  0.00     0.072 C 
HETATM   15  C   UNK     0     -13.995  12.781  -5.743  0.00  0.00     0.040 A 
HETATM   16  C   UNK     0     -15.429  12.061  -5.744  0.00  0.00     0.018 A 
ENDROOT
BRANCH   9  17
HETATM   17  C   UNK     0     -17.373  10.512  -2.150  0.00  0.00     0.018 A 
HETATM   18  C   UNK     0     -17.436   9.105  -2.774  0.00  0.00     0.115 A 
HETATM   19  F   UNK     0     -16.136   8.329  -3.057  0.00  0.00    -0.209 F 
HETATM   20  C   UNK     0     -18.799   8.475  -3.115  0.00  0.00     0.056 A 
HETATM   21  C   UNK     0     -20.099   9.251  -2.833  0.00  0.00     0.007 A 
HETATM   22  C   UNK     0     -20.036  10.657  -2.209  0.00  0.00     0.005 A 
HETATM   23  C   UNK     0     -18.672  11.288  -1.867  0.00  0.00     0.030 A 
ENDBRANCH   9  17
TORSDOF 1
ENDMDL
MODEL 5
REMARK VINA RESULT:      -4.9      9.494     12.540
REMARK  1 active torsions:
REMARK  status: ('A' for Active; 'I' for Inactive)
REMARK    1  A    between atoms: C_10  and  C_15 
ROOT
HETATM    1 Cl   UNK     0      -1.327 -14.050   3.333  0.00  0.00    -0.091 Cl
HETATM    2  N   UNK     0      -5.291 -10.091   6.112  0.00  0.00    -0.300 N 
HETATM    3  N   UNK     0      -2.591  -7.927   6.036  0.00  0.00    -0.243 NA
HETATM    4  N   UNK     0      -7.497  -9.483   7.063  0.00  0.00    -0.251 NA
HETATM    5  C   UNK     0      -4.194 -10.936   5.437  0.00  0.00     0.040 A 
HETATM    6  C   UNK     0      -5.207  -8.643   6.626  0.00  0.00     0.086 A 
HETATM    7  C   UNK     0      -2.742 -10.539   5.109  0.00  0.00     0.012 A 
HETATM    8  C   UNK     0      -4.006  -7.679   6.592  0.00  0.00     0.114 A 
HETATM    9  C   UNK     0      -2.029  -9.200   5.376  0.00  0.00     0.077 A 
HETATM   10  C   UNK     0      -6.707 -10.605   6.385  0.00  0.00     0.120 A 
HETATM   11  C   UNK     0      -6.572  -8.273   7.212  0.00  0.00     0.172 A 
HETATM   12  C   UNK     0      -4.750 -12.396   5.074  0.00  0.00     0.049 A 
HETATM   13  C   UNK     0      -1.747 -11.575   4.396  0.00  0.00     0.062 A 
HETATM   14  C   UNK     0      -7.243 -12.006   6.037  0.00  0.00     0.072 C 
HETATM   15  C   UNK     0      -3.782 -13.457   4.360  0.00  0.00     0.040 A 
HETATM   16  C   UNK     0      -2.270 -13.044   4.019  0.00  0.00     0.018 A 
ENDROOT
BRANCH   9  17
HETATM   17  C   UNK     0      -0.559  -9.125   4.922  0.00  0.00     0.018 A 
HETATM   18  C   UNK     0       0.573  -9.383   5.935  0.00  0.00     0.115 A 
HETATM   19  F   UNK     0       0.235  -9.715   7.400  0.00  0.00    -0.209 F 
HETATM   20  C   UNK     0       2.042  -9.308   5.482  0.00  0.00     0.056 A 
HETATM   21  C   UNK     0       2.380  -8.975   4.016  0.00  0.00     0.007 A 
HETATM   22  C   UNK     0       1.249  -8.718   3.005  0.00  0.00     0.005 A 
HETATM   23  C   UNK     0      -0.221  -8.793   3.457  0.00  0.00     0.030 A 
ENDBRANCH   9  17
TORSDOF 1
ENDMDL
MODEL 6
REMARK VINA RESULT:      -4.9     13.191     15.314
REMARK  1 active torsions:
REMARK  status: ('A' for Active; 'I' for Inactive)
REMARK    1  A    between atoms: C_10  and  C_15 
ROOT
HETATM    1 Cl   UNK     0       3.799   4.685   8.975  0.00  0.00    -0.091 Cl
HETATM    2  N   UNK     0      -0.762   8.401  11.093  0.00  0.00    -0.300 N 
HETATM    3  N   UNK     0      -2.381   5.413  11.743  0.00  0.00    -0.243 NA
HETATM    4  N   UNK     0      -1.750  10.620  11.585  0.00  0.00    -0.251 NA
HETATM    5  C   UNK     0       0.256   7.349  10.615  0.00  0.00     0.040 A 
HETATM    6  C   UNK     0      -2.156   8.179  11.708  0.00  0.00     0.086 A 
HETATM    7  C   UNK     0       0.131   5.814  10.634  0.00  0.00     0.012 A 
HETATM    8  C   UNK     0      -2.877   6.848  11.997  0.00  0.00     0.114 A 
HETATM    9  C   UNK     0      -1.043   4.952  11.136  0.00  0.00     0.077 A 
HETATM   10  C   UNK     0      -0.517   9.910  11.019  0.00  0.00     0.120 A 
HETATM   11  C   UNK     0      -2.761   9.552  12.009  0.00  0.00     0.172 A 
HETATM   12  C   UNK     0       1.576   8.061  10.044  0.00  0.00     0.049 A 
HETATM   13  C   UNK     0       1.317   4.885  10.084  0.00  0.00     0.062 A 
HETATM   14  C   UNK     0       0.749  10.595  10.472  0.00  0.00     0.072 C 
HETATM   15  C   UNK     0       2.781   7.162   9.486  0.00  0.00     0.040 A 
HETATM   16  C   UNK     0       2.651   5.563   9.507  0.00  0.00     0.018 A 
ENDROOT
BRANCH   9  17
HETATM   17  C   UNK     0      -0.852   3.429  11.015  0.00  0.00     0.018 A 
HETATM   18  C   UNK     0      -1.345   2.689   9.757  0.00  0.00     0.115 A 
HETATM   19  F   UNK     0      -2.028   3.473   8.621  0.00  0.00    -0.209 F 
HETATM   20  C   UNK     0      -1.154   1.166   9.635  0.00  0.00     0.056 A 
HETATM   21  C   UNK     0      -0.471   0.383  10.772  0.00  0.00     0.007 A 
HETATM   22  C   UNK     0       0.022   1.122  12.029  0.00  0.00     0.005 A 
HETATM   23  C   UNK     0      -0.169   2.646  12.151  0.00  0.00     0.030 A 
ENDBRANCH   9  17
TORSDOF 1
ENDMDL
MODEL 7
REMARK VINA RESULT:      -4.9      9.350     11.611
REMARK  1 active torsions:
REMARK  status: ('A' for Active; 'I' for Inactive)
REMARK    1  A    between atoms: C_10  and  C_15 
ROOT
HETATM    1 Cl   UNK     0       1.235 -13.352  -5.424  0.00  0.00    -0.091 Cl
HETATM    2  N   UNK     0      -2.854  -8.724  -4.439  0.00  0.00    -0.300 N 
HETATM    3  N   UNK     0      -0.337  -6.732  -5.735  0.00  0.00    -0.243 NA
HETATM    4  N   UNK     0      -5.041  -7.836  -3.686  0.00  0.00    -0.251 NA
HETATM    5  C   UNK     0      -1.736  -9.739  -4.744  0.00  0.00     0.040 A 
HETATM    6  C   UNK     0      -2.852  -7.200  -4.657  0.00  0.00     0.086 A 
HETATM    7  C   UNK     0      -0.340  -9.480  -5.342  0.00  0.00     0.012 A 
HETATM    8  C   UNK     0      -1.732  -6.313  -5.234  0.00  0.00     0.114 A 
HETATM    9  C   UNK     0       0.282  -8.141  -5.783  0.00  0.00     0.077 A 
HETATM   10  C   UNK     0      -4.207  -9.111  -3.840  0.00  0.00     0.120 A 
HETATM   11  C   UNK     0      -4.205  -6.658  -4.190  0.00  0.00     0.172 A 
HETATM   12  C   UNK     0      -2.199 -11.223  -4.347  0.00  0.00     0.049 A 
HETATM   13  C   UNK     0       0.689 -10.686  -5.584  0.00  0.00     0.062 A 
HETATM   14  C   UNK     0      -4.653 -10.535  -3.458  0.00  0.00     0.072 C 
HETATM   15  C   UNK     0      -1.195 -12.453  -4.575  0.00  0.00     0.040 A 
HETATM   16  C   UNK     0       0.259 -12.182  -5.198  0.00  0.00     0.018 A 
ENDROOT
BRANCH   9  17
HETATM   17  C   UNK     0       1.713  -8.224  -6.346  0.00  0.00     0.018 A 
HETATM   18  C   UNK     0       2.916  -7.896  -5.442  0.00  0.00     0.115 A 
HETATM   19  F   UNK     0       2.688  -7.485  -3.975  0.00  0.00    -0.209 F 
HETATM   20  C   UNK     0       4.347  -7.979  -6.004  0.00  0.00     0.056 A 
HETATM   21  C   UNK     0       4.575  -8.390  -7.471  0.00  0.00     0.007 A 
HETATM   22  C   UNK     0       3.373  -8.718  -8.375  0.00  0.00     0.005 A 
HETATM   23  C   UNK     0       1.941  -8.635  -7.812  0.00  0.00     0.030 A 
ENDBRANCH   9  17
TORSDOF 1
ENDMDL
MODEL 8
REMARK VINA RESULT:      -4.8     13.754     16.817
REMARK  1 active torsions:
REMARK  status: ('A' for Active; 'I' for Inactive)
REMARK    1  A    between atoms: C_10  and  C_15 
ROOT
HETATM    1 Cl   UNK     0      -2.896 -13.172   8.341  0.00  0.00    -0.091 Cl
HETATM    2  N   UNK     0      -9.046 -13.039   7.215  0.00  0.00    -0.300 N 
HETATM    3  N   UNK     0      -8.334  -9.974   5.773  0.00  0.00    -0.243 NA
HETATM    4  N   UNK     0     -11.328 -14.000   7.313  0.00  0.00    -0.251 NA
HETATM    5  C   UNK     0      -7.523 -12.913   7.412  0.00  0.00     0.040 A 
HETATM    6  C   UNK     0     -10.012 -12.047   6.542  0.00  0.00     0.086 A 
HETATM    7  C   UNK     0      -6.591 -11.763   6.986  0.00  0.00     0.012 A 
HETATM    8  C   UNK     0      -9.695 -10.683   5.901  0.00  0.00     0.114 A 
HETATM    9  C   UNK     0      -6.953 -10.455   6.256  0.00  0.00     0.077 A 
HETATM   10  C   UNK     0      -9.863 -14.243   7.689  0.00  0.00     0.120 A 
HETATM   11  C   UNK     0     -11.419 -12.646   6.606  0.00  0.00     0.172 A 
HETATM   12  C   UNK     0      -6.945 -14.203   8.170  0.00  0.00     0.049 A 
HETATM   13  C   UNK     0      -5.018 -11.823   7.288  0.00  0.00     0.062 A 
HETATM   14  C   UNK     0      -9.310 -15.482   8.416  0.00  0.00     0.072 C 
HETATM   15  C   UNK     0      -5.376 -14.296   8.488  0.00  0.00     0.040 A 
HETATM   16  C   UNK     0      -4.405 -13.098   8.044  0.00  0.00     0.018 A 
ENDROOT
BRANCH   9  17
HETATM   17  C   UNK     0      -5.776  -9.503   5.973  0.00  0.00     0.018 A 
HETATM   18  C   UNK     0      -5.370  -8.449   7.020  0.00  0.00     0.115 A 
HETATM   19  F   UNK     0      -6.140  -8.348   8.351  0.00  0.00    -0.209 F 
HETATM   20  C   UNK     0      -4.194  -7.496   6.738  0.00  0.00     0.056 A 
HETATM   21  C   UNK     0      -3.424  -7.597   5.407  0.00  0.00     0.007 A 
HETATM   22  C   UNK     0      -3.830  -8.650   4.361  0.00  0.00     0.005 A 
HETATM   23  C   UNK     0      -5.007  -9.603   4.643  0.00  0.00     0.030 A 
ENDBRANCH   9  17
TORSDOF 1
ENDMDL
MODEL 9
REMARK VINA RESULT:      -4.7     10.079     12.948
REMARK  1 active torsions:
REMARK  status: ('A' for Active; 'I' for Inactive)
REMARK    1  A    between atoms: C_10  and  C_15 
ROOT
HETATM    1 Cl   UNK     0       2.394  -6.434 -13.265  0.00  0.00    -0.091 Cl
HETATM    2  N   UNK     0       2.455  -7.704  -7.142  0.00  0.00    -0.300 N 
HETATM    3  N   UNK     0      -0.483  -5.875  -7.116  0.00  0.00    -0.243 NA
HETATM    4  N   UNK     0       3.439  -8.728  -5.111  0.00  0.00    -0.251 NA
HETATM    5  C   UNK     0       2.288  -7.303  -8.620  0.00  0.00     0.040 A 
HETATM    6  C   UNK     0       1.540  -7.373  -5.949  0.00  0.00     0.086 A 
HETATM    7  C   UNK     0       1.166  -6.471  -9.269  0.00  0.00     0.012 A 
HETATM    8  C   UNK     0       0.233  -6.559  -5.937  0.00  0.00     0.114 A 
HETATM    9  C   UNK     0      -0.068  -5.836  -8.599  0.00  0.00     0.077 A 
HETATM   10  C   UNK     0       3.625  -8.541  -6.619  0.00  0.00     0.120 A 
HETATM   11  C   UNK     0       2.153  -8.008  -4.698  0.00  0.00     0.172 A 
HETATM   12  C   UNK     0       3.498  -7.882  -9.501  0.00  0.00     0.049 A 
HETATM   13  C   UNK     0       1.175  -6.161 -10.842  0.00  0.00     0.062 A 
HETATM   14  C   UNK     0       4.787  -9.097  -7.463  0.00  0.00     0.072 C 
HETATM   15  C   UNK     0       3.539  -7.590 -11.077  0.00  0.00     0.040 A 
HETATM   16  C   UNK     0       2.370  -6.724 -11.752  0.00  0.00     0.018 A 
ENDROOT
BRANCH   9  17
HETATM   17  C   UNK     0      -1.009  -5.058  -9.537  0.00  0.00     0.018 A 
HETATM   18  C   UNK     0      -2.309  -5.716 -10.041  0.00  0.00     0.115 A 
HETATM   19  F   UNK     0      -2.665  -7.150  -9.605  0.00  0.00    -0.209 F 
HETATM   20  C   UNK     0      -3.251  -4.940 -10.979  0.00  0.00     0.056 A 
HETATM   21  C   UNK     0      -2.895  -3.506 -11.414  0.00  0.00     0.007 A 
HETATM   22  C   UNK     0      -1.596  -2.849 -10.911  0.00  0.00     0.005 A 
HETATM   23  C   UNK     0      -0.653  -3.625  -9.972  0.00  0.00     0.030 A 
ENDBRANCH   9  17
TORSDOF 1
ENDMDL
MODEL 10
REMARK VINA RESULT:      -4.6      5.605      8.799
REMARK  1 active torsions:
REMARK  status: ('A' for Active; 'I' for Inactive)
REMARK    1  A    between atoms: C_10  and  C_15 
ROOT
HETATM    1 Cl   UNK     0      10.062  -8.124   3.266  0.00  0.00    -0.091 Cl
HETATM    2  N   UNK     0       8.312 -13.363   0.334  0.00  0.00    -0.300 N 
HETATM    3  N   UNK     0       5.454 -11.553  -0.395  0.00  0.00    -0.243 NA
HETATM    4  N   UNK     0       8.666 -15.702  -0.403  0.00  0.00    -0.251 NA
HETATM    5  C   UNK     0       8.587 -12.004   1.005  0.00  0.00     0.040 A 
HETATM    6  C   UNK     0       7.072 -13.807  -0.463  0.00  0.00     0.086 A 
HETATM    7  C   UNK     0       7.689 -10.752   1.043  0.00  0.00     0.012 A 
HETATM    8  C   UNK     0       5.799 -13.001  -0.788  0.00  0.00     0.114 A 
HETATM    9  C   UNK     0       6.295 -10.552   0.420  0.00  0.00     0.077 A 
HETATM   10  C   UNK     0       9.293 -14.537   0.368  0.00  0.00     0.120 A 
HETATM   11  C   UNK     0       7.297 -15.251  -0.916  0.00  0.00     0.172 A 
HETATM   12  C   UNK     0      10.021 -12.010   1.723  0.00  0.00     0.049 A 
HETATM   13  C   UNK     0       8.164  -9.422   1.802  0.00  0.00     0.062 A 
HETATM   14  C   UNK     0      10.669 -14.545   1.057  0.00  0.00     0.072 C 
HETATM   15  C   UNK     0      10.527 -10.697   2.492  0.00  0.00     0.040 A 
HETATM   16  C   UNK     0       9.592  -9.394   2.532  0.00  0.00     0.018 A 
ENDROOT
BRANCH   9  17
HETATM   17  C   UNK     0       5.658  -9.168   0.641  0.00  0.00     0.018 A 
HETATM   18  C   UNK     0       5.809  -8.071  -0.430  0.00  0.00     0.115 A 
HETATM   19  F   UNK     0       6.597  -8.359  -1.722  0.00  0.00    -0.209 F 
HETATM   20  C   UNK     0       5.173  -6.686  -0.209  0.00  0.00     0.056 A 
HETATM   21  C   UNK     0       4.385  -6.398   1.083  0.00  0.00     0.007 A 
HETATM   22  C   UNK     0       4.234  -7.494   2.153  0.00  0.00     0.005 A 
HETATM   23  C   UNK     0       4.871  -8.879   1.932  0.00  0.00     0.030 A 
ENDBRANCH   9  17
TORSDOF 1
ENDMDL
