REMARK  1 active torsions:
REMARK  status: ('A' for Active; 'I' for Inactive)
REMARK    1  A    between atoms: C_10  and  C_15 
ROOT
HETATM    1 Cl   UNK     0       3.080  -0.433   0.000  0.00  0.00    -0.091 Cl
HETATM    2  N   UNK     0       8.990  -2.477   0.000  0.00  0.00    -0.300 N 
HETATM    3  N   UNK     0       9.760   0.897   0.000  0.00  0.00    -0.243 NA
HETATM    4  N   UNK     0      10.706  -4.265   0.000  0.00  0.00    -0.251 NA
HETATM    5  C   UNK     0       7.602  -1.809   0.000  0.00  0.00     0.040 A 
HETATM    6  C   UNK     0      10.377  -1.809   0.000  0.00  0.00     0.086 A 
HETATM    7  C   UNK     0       7.259  -0.307   0.000  0.00  0.00     0.012 A 
HETATM    8  C   UNK     0      10.720  -0.307   0.000  0.00  0.00     0.114 A 
HETATM    9  C   UNK     0       8.220   0.897   0.000  0.00  0.00     0.077 A 
HETATM   10  C   UNK     0       9.199  -3.993   0.000  0.00  0.00     0.120 A 
HETATM   11  C   UNK     0      11.432  -2.918   0.000  0.00  0.00     0.172 A 
HETATM   12  C   UNK     0       6.443  -2.918   0.000  0.00  0.00     0.049 A 
HETATM   13  C   UNK     0       5.734   0.189   0.000  0.00  0.00     0.062 A 
HETATM   14  C   UNK     0       8.088  -5.059   0.000  0.00  0.00     0.072 C 
HETATM   15  C   UNK     0       4.907  -2.457   0.000  0.00  0.00     0.040 A 
HETATM   16  C   UNK     0       4.550  -0.893   0.000  0.00  0.00     0.018 A 
ENDROOT
BRANCH   9  17
HETATM   17  C   UNK     0       7.551   2.284   0.000  0.00  0.00     0.018 A 
HETATM   18  C   UNK     0       8.419   3.557   0.000  0.00  0.00     0.115 A 
HETATM   19  F   UNK     0       9.955   3.442   0.000  0.00  0.00    -0.209 F 
HETATM   20  C   UNK     0       7.751   4.944   0.000  0.00  0.00     0.056 A 
HETATM   21  C   UNK     0       6.215   5.059   0.000  0.00  0.00     0.007 A 
HETATM   22  C   UNK     0       5.348   3.787   0.000  0.00  0.00     0.005 A 
HETATM   23  C   UNK     0       6.016   2.399   0.000  0.00  0.00     0.030 A 
ENDBRANCH   9  17
TORSDOF 1
