MODEL 1
REMARK VINA RESULT:      -5.5      0.000      0.000
REMARK  7 active torsions:
REMARK  status: ('A' for Active; 'I' for Inactive)
REMARK    1  A    between atoms: O_1  and  C_16 
REMARK    2  A    between atoms: O_1  and  C_24 
REMARK    3  A    between atoms: O_2  and  C_18 
REMARK    4  A    between atoms: O_2  and  C_26 
REMARK    5  A    between atoms: O_5  and  C_29 
REMARK    6  A    between atoms: N_9  and  C_22 
REMARK    7  A    between atoms: C_26  and  C_29 
ROOT
HETATM    1  O   UNK     0       2.839  -6.710  -5.335  0.00  0.00    -0.290 OA
HETATM    2  O   UNK     0       4.140  -9.595  -1.040  0.00  0.00    -0.284 OA
HETATM    3  N   UNK     0       0.384 -11.352  -4.396  0.00  0.00    -0.254 NA
HETATM    4  C   UNK     0       2.454  -9.219  -3.591  0.00  0.00     0.014 A 
HETATM    5  C   UNK     0       1.612  -9.031  -4.866  0.00  0.00     0.060 A 
HETATM    6  C   UNK     0       2.262 -10.473  -2.718  0.00  0.00     0.060 A 
HETATM    7  C   UNK     0       3.489  -8.152  -3.188  0.00  0.00     0.043 A 
HETATM    8  C   UNK     0       0.576 -10.098  -5.268  0.00  0.00     0.063 A 
HETATM    9  C   UNK     0       1.227 -11.540  -3.121  0.00  0.00     0.063 A 
HETATM   10  C   UNK     0       1.804  -7.777  -5.738  0.00  0.00     0.200 A 
HETATM   11  C   UNK     0       4.332  -8.340  -1.913  0.00  0.00     0.121 A 
HETATM   12  C   UNK     0       3.105 -10.661  -1.443  0.00  0.00     0.200 A 
HETATM   13  C   UNK     0       3.682  -6.898  -4.060  0.00  0.00     0.082 A 
HETATM   14  C   UNK     0      -0.266  -9.910  -6.544  0.00  0.00     0.052 C 
HETATM   15  C   UNK     0       1.034 -12.794  -2.248  0.00  0.00     0.052 C 
HETATM   16  C   UNK     0       5.367  -7.273  -1.510  0.00  0.00     0.127 A 
HETATM   17  C   UNK     0       4.717  -5.831  -3.657  0.00  0.00     0.058 A 
HETATM   18  C   UNK     0       5.560  -6.019  -2.382  0.00  0.00     0.059 A 
ENDROOT
BRANCH  12  19
HETATM   19  O   UNK     0       2.912 -11.916  -0.570  0.00  0.00    -0.308 OA
BRANCH  19  20
HETATM   20  C   UNK     0       4.138 -12.647   0.006  0.00  0.00     0.183 C 
BRANCH  20  21
HETATM   21  C   UNK     0       4.869 -13.707  -0.838  0.00  0.00     0.175 C 
BRANCH  21  22
HETATM   22  O   UNK     0       6.318 -13.459  -1.300  0.00  0.00    -0.349 OA
HETATM   23  C   UNK     0       7.190 -12.418  -0.574  0.00  0.00     0.174 C 
ENDBRANCH  21  22
ENDBRANCH  20  21
ENDBRANCH  19  20
ENDBRANCH  12  19
BRANCH  16  24
HETATM   24  N   UNK     0       6.210  -7.461  -0.234  0.00  0.00    -0.116 N 
HETATM   25  O   UNK     0       7.196  -8.640  -0.130  0.00  0.00    -0.532 OA
HETATM   26  O   UNK     0       6.067  -6.471   0.936  0.00  0.00    -0.532 OA
ENDBRANCH  16  24
BRANCH  10  27
HETATM   27  O   UNK     0       0.961  -7.589  -7.013  0.00  0.00    -0.313 OA
BRANCH  27  28
HETATM   28  C   UNK     0      -0.087  -6.463  -7.084  0.00  0.00     0.124 C 
HETATM   29  C   UNK     0      -0.030  -5.429  -8.225  0.00  0.00     0.033 C 
HETATM   30  C   UNK     0      -1.192  -6.370  -6.016  0.00  0.00     0.033 C 
ENDBRANCH  27  28
ENDBRANCH  10  27
TORSDOF 7
ENDMDL
MODEL 2
REMARK VINA RESULT:      -5.3      2.800      7.895
REMARK  7 active torsions:
REMARK  status: ('A' for Active; 'I' for Inactive)
REMARK    1  A    between atoms: O_1  and  C_16 
REMARK    2  A    between atoms: O_1  and  C_24 
REMARK    3  A    between atoms: O_2  and  C_18 
REMARK    4  A    between atoms: O_2  and  C_26 
REMARK    5  A    between atoms: O_5  and  C_29 
REMARK    6  A    between atoms: N_9  and  C_22 
REMARK    7  A    between atoms: C_26  and  C_29 
ROOT
HETATM    1  O   UNK     0       3.553 -10.182  -1.513  0.00  0.00    -0.290 OA
HETATM    2  O   UNK     0      -0.805  -9.807  -4.567  0.00  0.00    -0.284 OA
HETATM    3  N   UNK     0       3.223  -6.373  -5.233  0.00  0.00    -0.254 NA
HETATM    4  C   UNK     0       1.991  -8.787  -3.771  0.00  0.00     0.014 A 
HETATM    5  C   UNK     0       3.388  -8.277  -3.373  0.00  0.00     0.060 A 
HETATM    6  C   UNK     0       1.209  -8.090  -4.900  0.00  0.00     0.060 A 
HETATM    7  C   UNK     0       1.374  -9.994  -3.039  0.00  0.00     0.043 A 
HETATM    8  C   UNK     0       4.004  -7.070  -4.104  0.00  0.00     0.063 A 
HETATM    9  C   UNK     0       1.825  -6.883  -5.631  0.00  0.00     0.063 A 
HETATM   10  C   UNK     0       4.169  -8.975  -2.244  0.00  0.00     0.200 A 
HETATM   11  C   UNK     0      -0.023 -10.504  -3.437  0.00  0.00     0.121 A 
HETATM   12  C   UNK     0      -0.189  -8.600  -5.298  0.00  0.00     0.200 A 
HETATM   13  C   UNK     0       2.155 -10.692  -1.911  0.00  0.00     0.082 A 
HETATM   14  C   UNK     0       5.402  -6.560  -3.706  0.00  0.00     0.052 C 
HETATM   15  C   UNK     0       1.043  -6.185  -6.760  0.00  0.00     0.052 C 
HETATM   16  C   UNK     0      -0.640 -11.712  -2.706  0.00  0.00     0.127 A 
HETATM   17  C   UNK     0       1.539 -11.899  -1.180  0.00  0.00     0.058 A 
HETATM   18  C   UNK     0       0.142 -12.409  -1.577  0.00  0.00     0.059 A 
ENDROOT
BRANCH  12  19
HETATM   19  O   UNK     0      -0.971  -7.902  -6.427  0.00  0.00    -0.308 OA
BRANCH  19  20
HETATM   20  C   UNK     0      -2.476  -7.624  -6.263  0.00  0.00     0.183 C 
BRANCH  20  21
HETATM   21  C   UNK     0      -2.954  -6.500  -5.324  0.00  0.00     0.175 C 
BRANCH  21  22
HETATM   22  O   UNK     0      -3.837  -6.835  -4.108  0.00  0.00    -0.349 OA
HETATM   23  C   UNK     0      -3.316  -7.789  -3.017  0.00  0.00     0.174 C 
ENDBRANCH  21  22
ENDBRANCH  20  21
ENDBRANCH  19  20
ENDBRANCH  12  19
BRANCH  16  24
HETATM   24  N   UNK     0      -2.038 -12.221  -3.104  0.00  0.00    -0.116 N 
HETATM   25  O   UNK     0      -3.293 -11.433  -2.685  0.00  0.00    -0.532 OA
HETATM   26  O   UNK     0      -2.180 -13.519  -3.921  0.00  0.00    -0.532 OA
ENDBRANCH  16  24
BRANCH  10  27
HETATM   27  O   UNK     0       5.566  -8.465  -1.847  0.00  0.00    -0.313 OA
BRANCH  27  28
HETATM   28  C   UNK     0       5.816  -7.933  -0.423  0.00  0.00     0.124 C 
HETATM   29  C   UNK     0       6.997  -8.473   0.406  0.00  0.00     0.033 C 
HETATM   30  C   UNK     0       4.884  -6.861   0.173  0.00  0.00     0.033 C 
ENDBRANCH  27  28
ENDBRANCH  10  27
TORSDOF 7
ENDMDL
MODEL 3
REMARK VINA RESULT:      -5.3     26.460     28.381
REMARK  7 active torsions:
REMARK  status: ('A' for Active; 'I' for Inactive)
REMARK    1  A    between atoms: O_1  and  C_16 
REMARK    2  A    between atoms: O_1  and  C_24 
REMARK    3  A    between atoms: O_2  and  C_18 
REMARK    4  A    between atoms: O_2  and  C_26 
REMARK    5  A    between atoms: O_5  and  C_29 
REMARK    6  A    between atoms: N_9  and  C_22 
REMARK    7  A    between atoms: C_26  and  C_29 
ROOT
HETATM    1  O   UNK     0     -21.675  -1.909   7.842  0.00  0.00    -0.290 OA
HETATM    2  O   UNK     0     -20.605  -4.974  12.076  0.00  0.00    -0.284 OA
HETATM    3  N   UNK     0     -19.873   0.303  12.350  0.00  0.00    -0.254 NA
HETATM    4  C   UNK     0     -20.718  -2.193  10.756  0.00  0.00     0.014 A 
HETATM    5  C   UNK     0     -20.774  -0.803  10.096  0.00  0.00     0.060 A 
HETATM    6  C   UNK     0     -20.239  -2.335  12.213  0.00  0.00     0.060 A 
HETATM    7  C   UNK     0     -21.140  -3.441   9.959  0.00  0.00     0.043 A 
HETATM    8  C   UNK     0     -20.352   0.445  10.893  0.00  0.00     0.063 A 
HETATM    9  C   UNK     0     -19.817  -1.087  13.010  0.00  0.00     0.063 A 
HETATM   10  C   UNK     0     -21.253  -0.661   8.639  0.00  0.00     0.200 A 
HETATM   11  C   UNK     0     -21.084  -4.832  10.619  0.00  0.00     0.121 A 
HETATM   12  C   UNK     0     -20.183  -3.726  12.873  0.00  0.00     0.200 A 
HETATM   13  C   UNK     0     -21.619  -3.299   8.502  0.00  0.00     0.082 A 
HETATM   14  C   UNK     0     -20.408   1.836  10.233  0.00  0.00     0.052 C 
HETATM   15  C   UNK     0     -19.339  -1.230  14.467  0.00  0.00     0.052 C 
HETATM   16  C   UNK     0     -21.506  -6.080   9.822  0.00  0.00     0.127 A 
HETATM   17  C   UNK     0     -22.041  -4.548   7.705  0.00  0.00     0.058 A 
HETATM   18  C   UNK     0     -21.985  -5.938   8.364  0.00  0.00     0.059 A 
ENDROOT
BRANCH  12  19
HETATM   19  O   UNK     0     -19.705  -3.868  14.330  0.00  0.00    -0.308 OA
BRANCH  19  20
HETATM   20  C   UNK     0     -18.535  -4.810  14.667  0.00  0.00     0.183 C 
BRANCH  20  21
HETATM   21  C   UNK     0     -17.286  -4.262  15.383  0.00  0.00     0.175 C 
BRANCH  21  22
HETATM   22  O   UNK     0     -16.396  -3.215  14.686  0.00  0.00    -0.349 OA
HETATM   23  C   UNK     0     -14.972  -2.945  15.207  0.00  0.00     0.174 C 
ENDBRANCH  21  22
ENDBRANCH  20  21
ENDBRANCH  19  20
ENDBRANCH  12  19
BRANCH  16  24
HETATM   24  N   UNK     0     -21.450  -7.471  10.482  0.00  0.00    -0.116 N 
HETATM   25  O   UNK     0     -22.754  -8.225  10.799  0.00  0.00    -0.532 OA
HETATM   26  O   UNK     0     -20.090  -8.106  10.824  0.00  0.00    -0.532 OA
ENDBRANCH  16  24
BRANCH  10  27
HETATM   27  O   UNK     0     -21.309   0.729   7.980  0.00  0.00    -0.313 OA
BRANCH  27  28
HETATM   28  C   UNK     0     -20.610   0.969   6.628  0.00  0.00     0.124 C 
HETATM   29  C   UNK     0     -19.202   0.398   6.377  0.00  0.00     0.033 C 
HETATM   30  C   UNK     0     -21.319   1.780   5.528  0.00  0.00     0.033 C 
ENDBRANCH  27  28
ENDBRANCH  10  27
TORSDOF 7
ENDMDL
MODEL 4
REMARK VINA RESULT:      -5.2      2.249      4.955
REMARK  7 active torsions:
REMARK  status: ('A' for Active; 'I' for Inactive)
REMARK    1  A    between atoms: O_1  and  C_16 
REMARK    2  A    between atoms: O_1  and  C_24 
REMARK    3  A    between atoms: O_2  and  C_18 
REMARK    4  A    between atoms: O_2  and  C_26 
REMARK    5  A    between atoms: O_5  and  C_29 
REMARK    6  A    between atoms: N_9  and  C_22 
REMARK    7  A    between atoms: C_26  and  C_29 
ROOT
HETATM    1  O   UNK     0       0.388 -10.542  -4.367  0.00  0.00    -0.290 OA
HETATM    2  O   UNK     0       4.515  -9.989  -1.032  0.00  0.00    -0.284 OA
HETATM    3  N   UNK     0       3.545  -6.256  -4.718  0.00  0.00    -0.254 NA
HETATM    4  C   UNK     0       2.816  -8.929  -3.373  0.00  0.00     0.014 A 
HETATM    5  C   UNK     0       1.967  -8.399  -4.542  0.00  0.00     0.060 A 
HETATM    6  C   UNK     0       4.030  -8.123  -2.875  0.00  0.00     0.060 A 
HETATM    7  C   UNK     0       2.451 -10.266  -2.700  0.00  0.00     0.043 A 
HETATM    8  C   UNK     0       2.331  -7.063  -5.215  0.00  0.00     0.063 A 
HETATM    9  C   UNK     0       4.395  -6.786  -3.548  0.00  0.00     0.063 A 
HETATM   10  C   UNK     0       0.753  -9.206  -5.040  0.00  0.00     0.200 A 
HETATM   11  C   UNK     0       3.301 -10.796  -1.530  0.00  0.00     0.121 A 
HETATM   12  C   UNK     0       4.880  -8.653  -1.705  0.00  0.00     0.200 A 
HETATM   13  C   UNK     0       1.238 -11.072  -3.197  0.00  0.00     0.082 A 
HETATM   14  C   UNK     0       1.482  -6.533  -6.385  0.00  0.00     0.052 C 
HETATM   15  C   UNK     0       5.609  -5.980  -3.050  0.00  0.00     0.052 C 
HETATM   16  C   UNK     0       2.937 -12.132  -0.857  0.00  0.00     0.127 A 
HETATM   17  C   UNK     0       0.874 -12.409  -2.524  0.00  0.00     0.058 A 
HETATM   18  C   UNK     0       1.723 -12.939  -1.355  0.00  0.00     0.059 A 
ENDROOT
BRANCH  12  19
HETATM   19  O   UNK     0       6.094  -7.846  -1.207  0.00  0.00    -0.308 OA
BRANCH  19  20
HETATM   20  C   UNK     0       6.072  -7.207   0.193  0.00  0.00     0.183 C 
BRANCH  20  21
HETATM   21  C   UNK     0       4.807  -6.480   0.688  0.00  0.00     0.175 C 
BRANCH  21  22
HETATM   22  O   UNK     0       3.789  -7.222   1.574  0.00  0.00    -0.349 OA
HETATM   23  C   UNK     0       4.132  -8.612   2.143  0.00  0.00     0.174 C 
ENDBRANCH  21  22
ENDBRANCH  20  21
ENDBRANCH  19  20
ENDBRANCH  12  19
BRANCH  16  24
HETATM   24  N   UNK     0       3.786 -12.662   0.313  0.00  0.00    -0.116 N 
HETATM   25  O   UNK     0       5.034 -13.521   0.032  0.00  0.00    -0.532 OA
HETATM   26  O   UNK     0       3.389 -12.334   1.765  0.00  0.00    -0.532 OA
ENDBRANCH  16  24
BRANCH  10  27
HETATM   27  O   UNK     0      -0.096  -8.676  -6.210  0.00  0.00    -0.313 OA
BRANCH  27  28
HETATM   28  C   UNK     0      -1.530  -8.174  -5.955  0.00  0.00     0.124 C 
HETATM   29  C   UNK     0      -1.868  -7.441  -4.644  0.00  0.00     0.033 C 
HETATM   30  C   UNK     0      -2.626  -8.406  -7.012  0.00  0.00     0.033 C 
ENDBRANCH  27  28
ENDBRANCH  10  27
TORSDOF 7
ENDMDL
MODEL 5
REMARK VINA RESULT:      -5.1     27.445     30.290
REMARK  7 active torsions:
REMARK  status: ('A' for Active; 'I' for Inactive)
REMARK    1  A    between atoms: O_1  and  C_16 
REMARK    2  A    between atoms: O_1  and  C_24 
REMARK    3  A    between atoms: O_2  and  C_18 
REMARK    4  A    between atoms: O_2  and  C_26 
REMARK    5  A    between atoms: O_5  and  C_29 
REMARK    6  A    between atoms: N_9  and  C_22 
REMARK    7  A    between atoms: C_26  and  C_29 
ROOT
HETATM    1  O   UNK     0     -19.765  -0.235   7.921  0.00  0.00    -0.290 OA
HETATM    2  O   UNK     0     -21.652   4.755   7.864  0.00  0.00    -0.284 OA
HETATM    3  N   UNK     0     -21.104   2.162  12.495  0.00  0.00    -0.254 NA
HETATM    4  C   UNK     0     -20.840   2.227   9.427  0.00  0.00     0.014 A 
HETATM    5  C   UNK     0     -20.435   0.964  10.208  0.00  0.00     0.060 A 
HETATM    6  C   UNK     0     -21.378   3.458  10.180  0.00  0.00     0.060 A 
HETATM    7  C   UNK     0     -20.708   2.259   7.893  0.00  0.00     0.043 A 
HETATM    8  C   UNK     0     -20.567   0.931  11.742  0.00  0.00     0.063 A 
HETATM    9  C   UNK     0     -21.509   3.426  11.714  0.00  0.00     0.063 A 
HETATM   10  C   UNK     0     -19.897  -0.268   9.455  0.00  0.00     0.200 A 
HETATM   11  C   UNK     0     -21.114   3.523   7.112  0.00  0.00     0.121 A 
HETATM   12  C   UNK     0     -21.783   4.722   9.398  0.00  0.00     0.200 A 
HETATM   13  C   UNK     0     -20.171   1.029   7.140  0.00  0.00     0.082 A 
HETATM   14  C   UNK     0     -20.161  -0.333  12.523  0.00  0.00     0.052 C 
HETATM   15  C   UNK     0     -22.047   4.657  12.466  0.00  0.00     0.052 C 
HETATM   16  C   UNK     0     -20.982   3.556   5.578  0.00  0.00     0.127 A 
HETATM   17  C   UNK     0     -20.039   1.061   5.606  0.00  0.00     0.058 A 
HETATM   18  C   UNK     0     -20.445   2.324   4.825  0.00  0.00     0.059 A 
ENDROOT
BRANCH  12  19
HETATM   19  O   UNK     0     -22.321   5.954  10.151  0.00  0.00    -0.308 OA
BRANCH  19  20
HETATM   20  C   UNK     0     -23.009   7.091   9.375  0.00  0.00     0.183 C 
BRANCH  20  21
HETATM   21  C   UNK     0     -22.255   8.408   9.110  0.00  0.00     0.175 C 
BRANCH  21  22
HETATM   22  O   UNK     0     -21.180   8.473   8.009  0.00  0.00    -0.349 OA
HETATM   23  C   UNK     0     -21.520   8.030   6.574  0.00  0.00     0.174 C 
ENDBRANCH  21  22
ENDBRANCH  20  21
ENDBRANCH  19  20
ENDBRANCH  12  19
BRANCH  16  24
HETATM   24  N   UNK     0     -21.388   4.820   4.796  0.00  0.00    -0.116 N 
HETATM   25  O   UNK     0     -22.868   5.241   4.729  0.00  0.00    -0.532 OA
HETATM   26  O   UNK     0     -20.314   5.663   4.083  0.00  0.00    -0.532 OA
ENDBRANCH  16  24
BRANCH  10  27
HETATM   27  O   UNK     0     -19.492  -1.531  10.236  0.00  0.00    -0.313 OA
BRANCH  27  28
HETATM   28  C   UNK     0     -20.336  -2.814  10.117  0.00  0.00     0.124 C 
HETATM   29  C   UNK     0     -20.362  -3.829  11.275  0.00  0.00     0.033 C 
HETATM   30  C   UNK     0     -21.155  -3.081   8.841  0.00  0.00     0.033 C 
ENDBRANCH  27  28
ENDBRANCH  10  27
TORSDOF 7
ENDMDL
MODEL 6
REMARK VINA RESULT:      -4.9     25.264     27.952
REMARK  7 active torsions:
REMARK  status: ('A' for Active; 'I' for Inactive)
REMARK    1  A    between atoms: O_1  and  C_16 
REMARK    2  A    between atoms: O_1  and  C_24 
REMARK    3  A    between atoms: O_2  and  C_18 
REMARK    4  A    between atoms: O_2  and  C_26 
REMARK    5  A    between atoms: O_5  and  C_29 
REMARK    6  A    between atoms: N_9  and  C_22 
REMARK    7  A    between atoms: C_26  and  C_29 
ROOT
HETATM    1  O   UNK     0     -14.604  11.943   0.448  0.00  0.00    -0.290 OA
HETATM    2  O   UNK     0     -12.923  12.651  -4.565  0.00  0.00    -0.284 OA
HETATM    3  N   UNK     0     -17.789  10.670  -3.637  0.00  0.00    -0.254 NA
HETATM    4  C   UNK     0     -15.105  11.755  -2.584  0.00  0.00     0.014 A 
HETATM    5  C   UNK     0     -16.196  11.307  -1.595  0.00  0.00     0.060 A 
HETATM    6  C   UNK     0     -15.356  11.660  -4.101  0.00  0.00     0.060 A 
HETATM    7  C   UNK     0     -13.763  12.297  -2.058  0.00  0.00     0.043 A 
HETATM    8  C   UNK     0     -17.538  10.764  -2.121  0.00  0.00     0.063 A 
HETATM    9  C   UNK     0     -16.698  11.118  -4.628  0.00  0.00     0.063 A 
HETATM   10  C   UNK     0     -15.946  11.401  -0.078  0.00  0.00     0.200 A 
HETATM   11  C   UNK     0     -12.672  12.745  -3.048  0.00  0.00     0.121 A 
HETATM   12  C   UNK     0     -14.265  12.109  -5.092  0.00  0.00     0.200 A 
HETATM   13  C   UNK     0     -13.513  12.391  -0.542  0.00  0.00     0.082 A 
HETATM   14  C   UNK     0     -18.629  10.316  -1.131  0.00  0.00     0.052 C 
HETATM   15  C   UNK     0     -16.948  11.024  -6.144  0.00  0.00     0.052 C 
HETATM   16  C   UNK     0     -11.330  13.287  -2.522  0.00  0.00     0.127 A 
HETATM   17  C   UNK     0     -12.171  12.934  -0.016  0.00  0.00     0.058 A 
HETATM   18  C   UNK     0     -11.080  13.382  -1.005  0.00  0.00     0.059 A 
ENDROOT
BRANCH  12  19
HETATM   19  O   UNK     0     -14.515  12.014  -6.608  0.00  0.00    -0.308 OA
BRANCH  19  20
HETATM   20  C   UNK     0     -13.371  11.607  -7.554  0.00  0.00     0.183 C 
BRANCH  20  21
HETATM   21  C   UNK     0     -13.597  10.507  -8.608  0.00  0.00     0.175 C 
BRANCH  21  22
HETATM   22  O   UNK     0     -12.422   9.620  -9.061  0.00  0.00    -0.349 OA
HETATM   23  C   UNK     0     -11.053  10.254  -9.369  0.00  0.00     0.174 C 
ENDBRANCH  21  22
ENDBRANCH  20  21
ENDBRANCH  19  20
ENDBRANCH  12  19
BRANCH  16  24
HETATM   24  N   UNK     0     -10.239  13.735  -3.512  0.00  0.00    -0.116 N 
HETATM   25  O   UNK     0      -9.699  12.746  -4.562  0.00  0.00    -0.532 OA
HETATM   26  O   UNK     0      -9.689  15.173  -3.454  0.00  0.00    -0.532 OA
ENDBRANCH  16  24
BRANCH  10  27
HETATM   27  O   UNK     0     -17.036  10.953   0.911  0.00  0.00    -0.313 OA
BRANCH  27  28
HETATM   28  C   UNK     0     -17.635  11.964   1.908  0.00  0.00     0.124 C 
HETATM   29  C   UNK     0     -17.317  13.465   1.766  0.00  0.00     0.033 C 
HETATM   30  C   UNK     0     -18.550  11.474   3.045  0.00  0.00     0.033 C 
ENDBRANCH  27  28
ENDBRANCH  10  27
TORSDOF 7
ENDMDL
MODEL 7
REMARK VINA RESULT:      -4.8     26.663     28.646
REMARK  7 active torsions:
REMARK  status: ('A' for Active; 'I' for Inactive)
REMARK    1  A    between atoms: O_1  and  C_16 
REMARK    2  A    between atoms: O_1  and  C_24 
REMARK    3  A    between atoms: O_2  and  C_18 
REMARK    4  A    between atoms: O_2  and  C_26 
REMARK    5  A    between atoms: O_5  and  C_29 
REMARK    6  A    between atoms: N_9  and  C_22 
REMARK    7  A    between atoms: C_26  and  C_29 
ROOT
HETATM    1  O   UNK     0     -21.623  -1.851   7.908  0.00  0.00    -0.290 OA
HETATM    2  O   UNK     0     -20.575  -4.903  12.156  0.00  0.00    -0.284 OA
HETATM    3  N   UNK     0     -19.871   0.378  12.427  0.00  0.00    -0.254 NA
HETATM    4  C   UNK     0     -20.690  -2.125  10.830  0.00  0.00     0.014 A 
HETATM    5  C   UNK     0     -20.747  -0.737  10.168  0.00  0.00     0.060 A 
HETATM    6  C   UNK     0     -20.223  -2.262  12.292  0.00  0.00     0.060 A 
HETATM    7  C   UNK     0     -21.099  -3.377  10.032  0.00  0.00     0.043 A 
HETATM    8  C   UNK     0     -20.337   0.515  10.966  0.00  0.00     0.063 A 
HETATM    9  C   UNK     0     -19.813  -1.011  13.090  0.00  0.00     0.063 A 
HETATM   10  C   UNK     0     -21.214  -0.599   8.707  0.00  0.00     0.200 A 
HETATM   11  C   UNK     0     -21.042  -4.766  10.695  0.00  0.00     0.121 A 
HETATM   12  C   UNK     0     -20.165  -3.651  12.955  0.00  0.00     0.200 A 
HETATM   13  C   UNK     0     -21.566  -3.240   8.571  0.00  0.00     0.082 A 
HETATM   14  C   UNK     0     -20.395   1.904  10.303  0.00  0.00     0.052 C 
HETATM   15  C   UNK     0     -19.347  -1.148  14.551  0.00  0.00     0.052 C 
HETATM   16  C   UNK     0     -21.451  -6.017   9.897  0.00  0.00     0.127 A 
HETATM   17  C   UNK     0     -21.975  -4.492   7.773  0.00  0.00     0.058 A 
HETATM   18  C   UNK     0     -21.918  -5.880   8.435  0.00  0.00     0.059 A 
ENDROOT
BRANCH  12  19
HETATM   19  O   UNK     0     -19.699  -3.789  14.416  0.00  0.00    -0.308 OA
BRANCH  19  20
HETATM   20  C   UNK     0     -18.920  -5.040  14.861  0.00  0.00     0.183 C 
BRANCH  20  21
HETATM   21  C   UNK     0     -19.673  -6.244  15.459  0.00  0.00     0.175 C 
BRANCH  21  22
HETATM   22  O   UNK     0     -20.769  -6.951  14.639  0.00  0.00    -0.349 OA
HETATM   23  C   UNK     0     -20.674  -8.464  14.370  0.00  0.00     0.174 C 
ENDBRANCH  21  22
ENDBRANCH  20  21
ENDBRANCH  19  20
ENDBRANCH  12  19
BRANCH  16  24
HETATM   24  N   UNK     0     -21.394  -7.406  10.560  0.00  0.00    -0.116 N 
HETATM   25  O   UNK     0     -20.053  -8.157  10.660  0.00  0.00    -0.532 OA
HETATM   26  O   UNK     0     -22.677  -8.045  11.123  0.00  0.00    -0.532 OA
ENDBRANCH  16  24
BRANCH  10  27
HETATM   27  O   UNK     0     -21.271   0.789   8.044  0.00  0.00    -0.313 OA
BRANCH  27  28
HETATM   28  C   UNK     0     -20.426   1.079   6.789  0.00  0.00     0.124 C 
HETATM   29  C   UNK     0     -19.198   0.207   6.469  0.00  0.00     0.033 C 
HETATM   30  C   UNK     0     -20.811   2.240   5.854  0.00  0.00     0.033 C 
ENDBRANCH  27  28
ENDBRANCH  10  27
TORSDOF 7
ENDMDL
MODEL 8
REMARK VINA RESULT:      -4.8      2.449      7.265
REMARK  7 active torsions:
REMARK  status: ('A' for Active; 'I' for Inactive)
REMARK    1  A    between atoms: O_1  and  C_16 
REMARK    2  A    between atoms: O_1  and  C_24 
REMARK    3  A    between atoms: O_2  and  C_18 
REMARK    4  A    between atoms: O_2  and  C_26 
REMARK    5  A    between atoms: O_5  and  C_29 
REMARK    6  A    between atoms: N_9  and  C_22 
REMARK    7  A    between atoms: C_26  and  C_29 
ROOT
HETATM    1  O   UNK     0       4.627 -10.045  -0.586  0.00  0.00    -0.290 OA
HETATM    2  O   UNK     0       0.705 -10.873  -4.106  0.00  0.00    -0.284 OA
HETATM    3  N   UNK     0       3.657  -6.439  -4.395  0.00  0.00    -0.254 NA
HETATM    4  C   UNK     0       2.996  -9.119  -3.029  0.00  0.00     0.014 A 
HETATM    5  C   UNK     0       4.142  -8.242  -2.491  0.00  0.00     0.060 A 
HETATM    6  C   UNK     0       2.181  -8.656  -4.251  0.00  0.00     0.060 A 
HETATM    7  C   UNK     0       2.666 -10.459  -2.346  0.00  0.00     0.043 A 
HETATM    8  C   UNK     0       4.472  -6.902  -3.174  0.00  0.00     0.063 A 
HETATM    9  C   UNK     0       2.511  -7.316  -4.934  0.00  0.00     0.063 A 
HETATM   10  C   UNK     0       4.957  -8.705  -1.269  0.00  0.00     0.200 A 
HETATM   11  C   UNK     0       1.520 -11.336  -2.884  0.00  0.00     0.121 A 
HETATM   12  C   UNK     0       1.035  -9.533  -4.789  0.00  0.00     0.200 A 
HETATM   13  C   UNK     0       3.481 -10.922  -1.125  0.00  0.00     0.082 A 
HETATM   14  C   UNK     0       5.618  -6.025  -2.636  0.00  0.00     0.052 C 
HETATM   15  C   UNK     0       1.695  -6.853  -6.156  0.00  0.00     0.052 C 
HETATM   16  C   UNK     0       1.190 -12.676  -2.201  0.00  0.00     0.127 A 
HETATM   17  C   UNK     0       3.151 -12.262  -0.441  0.00  0.00     0.058 A 
HETATM   18  C   UNK     0       2.006 -13.139  -0.979  0.00  0.00     0.059 A 
ENDROOT
BRANCH  12  19
HETATM   19  O   UNK     0       0.219  -9.070  -6.011  0.00  0.00    -0.308 OA
BRANCH  19  20
HETATM   20  C   UNK     0       0.258  -9.886  -7.316  0.00  0.00     0.183 C 
BRANCH  20  21
HETATM   21  C   UNK     0       1.611 -10.242  -7.961  0.00  0.00     0.175 C 
BRANCH  21  22
HETATM   22  O   UNK     0       2.272 -11.601  -7.663  0.00  0.00    -0.349 OA
HETATM   23  C   UNK     0       1.444 -12.742  -7.043  0.00  0.00     0.174 C 
ENDBRANCH  21  22
ENDBRANCH  20  21
ENDBRANCH  19  20
ENDBRANCH  12  19
BRANCH  16  24
HETATM   24  N   UNK     0       0.044 -13.553  -2.740  0.00  0.00    -0.116 N 
HETATM   25  O   UNK     0      -1.338 -13.516  -2.062  0.00  0.00    -0.532 OA
HETATM   26  O   UNK     0       0.280 -14.468  -3.956  0.00  0.00    -0.532 OA
ENDBRANCH  16  24
BRANCH  10  27
HETATM   27  O   UNK     0       6.102  -7.828  -0.731  0.00  0.00    -0.313 OA
BRANCH  27  28
HETATM   28  C   UNK     0       6.026  -7.252   0.695  0.00  0.00     0.124 C 
HETATM   29  C   UNK     0       7.262  -7.302   1.613  0.00  0.00     0.033 C 
HETATM   30  C   UNK     0       4.714  -6.626   1.203  0.00  0.00     0.033 C 
ENDBRANCH  27  28
ENDBRANCH  10  27
TORSDOF 7
ENDMDL
MODEL 9
REMARK VINA RESULT:      -4.7      7.727     11.950
REMARK  7 active torsions:
REMARK  status: ('A' for Active; 'I' for Inactive)
REMARK    1  A    between atoms: O_1  and  C_16 
REMARK    2  A    between atoms: O_1  and  C_24 
REMARK    3  A    between atoms: O_2  and  C_18 
REMARK    4  A    between atoms: O_2  and  C_26 
REMARK    5  A    between atoms: O_5  and  C_29 
REMARK    6  A    between atoms: N_9  and  C_22 
REMARK    7  A    between atoms: C_26  and  C_29 
ROOT
HETATM    1  O   UNK     0       7.487 -16.975   0.225  0.00  0.00    -0.290 OA
HETATM    2  O   UNK     0      12.732 -16.101   0.667  0.00  0.00    -0.284 OA
HETATM    3  N   UNK     0       9.319 -12.003   0.841  0.00  0.00    -0.254 NA
HETATM    4  C   UNK     0       9.846 -15.026   0.578  0.00  0.00     0.014 A 
HETATM    5  C   UNK     0       8.404 -14.489   0.533  0.00  0.00     0.060 A 
HETATM    6  C   UNK     0      11.025 -14.052   0.754  0.00  0.00     0.060 A 
HETATM    7  C   UNK     0      10.109 -16.538   0.446  0.00  0.00     0.043 A 
HETATM    8  C   UNK     0       8.141 -12.977   0.665  0.00  0.00     0.063 A 
HETATM    9  C   UNK     0      10.762 -12.540   0.886  0.00  0.00     0.063 A 
HETATM   10  C   UNK     0       7.224 -15.464   0.357  0.00  0.00     0.200 A 
HETATM   11  C   UNK     0      11.552 -17.075   0.491  0.00  0.00     0.121 A 
HETATM   12  C   UNK     0      12.468 -14.589   0.799  0.00  0.00     0.200 A 
HETATM   13  C   UNK     0       8.930 -17.512   0.270  0.00  0.00     0.082 A 
HETATM   14  C   UNK     0       6.698 -12.440   0.620  0.00  0.00     0.052 C 
HETATM   15  C   UNK     0      11.942 -11.566   1.062  0.00  0.00     0.052 C 
HETATM   16  C   UNK     0      11.815 -18.587   0.359  0.00  0.00     0.127 A 
HETATM   17  C   UNK     0       9.193 -19.024   0.138  0.00  0.00     0.058 A 
HETATM   18  C   UNK     0      10.635 -19.561   0.183  0.00  0.00     0.059 A 
ENDROOT
BRANCH  12  19
HETATM   19  O   UNK     0      13.648 -13.614   0.975  0.00  0.00    -0.308 OA
BRANCH  19  20
HETATM   20  C   UNK     0      14.912 -14.065   1.731  0.00  0.00     0.183 C 
BRANCH  20  21
HETATM   21  C   UNK     0      16.068 -14.734   0.965  0.00  0.00     0.175 C 
BRANCH  21  22
HETATM   22  O   UNK     0      16.154 -16.270   0.888  0.00  0.00    -0.349 OA
HETATM   23  C   UNK     0      17.121 -16.939  -0.107  0.00  0.00     0.174 C 
ENDBRANCH  21  22
ENDBRANCH  20  21
ENDBRANCH  19  20
ENDBRANCH  12  19
BRANCH  16  24
HETATM   24  N   UNK     0      13.258 -19.124   0.404  0.00  0.00    -0.116 N 
HETATM   25  O   UNK     0      13.834 -19.884  -0.805  0.00  0.00    -0.532 OA
HETATM   26  O   UNK     0      14.125 -18.901   1.658  0.00  0.00    -0.532 OA
ENDBRANCH  16  24
BRANCH  10  27
HETATM   27  O   UNK     0       5.782 -14.926   0.312  0.00  0.00    -0.313 OA
BRANCH  27  28
HETATM   28  C   UNK     0       4.783 -15.310   1.420  0.00  0.00     0.124 C 
HETATM   29  C   UNK     0       5.296 -15.873   2.759  0.00  0.00     0.033 C 
HETATM   30  C   UNK     0       3.271 -15.129   1.189  0.00  0.00     0.033 C 
ENDBRANCH  27  28
ENDBRANCH  10  27
TORSDOF 7
ENDMDL
MODEL 10
REMARK VINA RESULT:      -4.6     26.871     27.892
REMARK  7 active torsions:
REMARK  status: ('A' for Active; 'I' for Inactive)
REMARK    1  A    between atoms: O_1  and  C_16 
REMARK    2  A    between atoms: O_1  and  C_24 
REMARK    3  A    between atoms: O_2  and  C_18 
REMARK    4  A    between atoms: O_2  and  C_26 
REMARK    5  A    between atoms: O_5  and  C_29 
REMARK    6  A    between atoms: N_9  and  C_22 
REMARK    7  A    between atoms: C_26  and  C_29 
ROOT
HETATM    1  O   UNK     0     -10.134  14.569  -3.598  0.00  0.00    -0.290 OA
HETATM    2  O   UNK     0     -14.450  11.525  -4.350  0.00  0.00    -0.284 OA
HETATM    3  N   UNK     0     -12.869  12.735   0.599  0.00  0.00    -0.254 NA
HETATM    4  C   UNK     0     -12.484  12.943  -2.450  0.00  0.00     0.014 A 
HETATM    5  C   UNK     0     -11.502  13.652  -1.500  0.00  0.00     0.060 A 
HETATM    6  C   UNK     0     -13.660  12.130  -1.876  0.00  0.00     0.060 A 
HETATM    7  C   UNK     0     -12.292  13.047  -3.974  0.00  0.00     0.043 A 
HETATM    8  C   UNK     0     -11.694  13.548   0.025  0.00  0.00     0.063 A 
HETATM    9  C   UNK     0     -13.852  12.026  -0.351  0.00  0.00     0.063 A 
HETATM   10  C   UNK     0     -10.327  14.465  -2.074  0.00  0.00     0.200 A 
HETATM   11  C   UNK     0     -13.275  12.338  -4.925  0.00  0.00     0.121 A 
HETATM   12  C   UNK     0     -14.643  11.421  -2.826  0.00  0.00     0.200 A 
HETATM   13  C   UNK     0     -11.117  13.860  -4.548  0.00  0.00     0.082 A 
HETATM   14  C   UNK     0     -10.711  14.257   0.975  0.00  0.00     0.052 C 
HETATM   15  C   UNK     0     -15.027  11.212   0.223  0.00  0.00     0.052 C 
HETATM   16  C   UNK     0     -13.083  12.442  -6.449  0.00  0.00     0.127 A 
HETATM   17  C   UNK     0     -10.925  13.964  -6.073  0.00  0.00     0.058 A 
HETATM   18  C   UNK     0     -11.907  13.255  -7.023  0.00  0.00     0.059 A 
ENDROOT
BRANCH  12  19
HETATM   19  O   UNK     0     -15.818  10.607  -2.252  0.00  0.00    -0.308 OA
BRANCH  19  20
HETATM   20  C   UNK     0     -16.242   9.288  -2.923  0.00  0.00     0.183 C 
BRANCH  20  21
HETATM   21  C   UNK     0     -17.396   9.280  -3.944  0.00  0.00     0.175 C 
BRANCH  21  22
HETATM   22  O   UNK     0     -18.173   7.978  -4.217  0.00  0.00    -0.349 OA
HETATM   23  C   UNK     0     -18.789   7.727  -5.606  0.00  0.00     0.174 C 
ENDBRANCH  21  22
ENDBRANCH  20  21
ENDBRANCH  19  20
ENDBRANCH  12  19
BRANCH  16  24
HETATM   24  N   UNK     0     -14.066  11.733  -7.399  0.00  0.00    -0.116 N 
HETATM   25  O   UNK     0     -13.566  10.608  -8.325  0.00  0.00    -0.532 OA
HETATM   26  O   UNK     0     -15.549  12.148  -7.424  0.00  0.00    -0.532 OA
ENDBRANCH  16  24
BRANCH  10  27
HETATM   27  O   UNK     0      -9.344  15.173  -1.124  0.00  0.00    -0.313 OA
BRANCH  27  28
HETATM   28  C   UNK     0      -9.197  16.706  -1.172  0.00  0.00     0.124 C 
HETATM   29  C   UNK     0      -7.902  17.371  -0.667  0.00  0.00     0.033 C 
HETATM   30  C   UNK     0     -10.343  17.573  -1.724  0.00  0.00     0.033 C 
ENDBRANCH  27  28
ENDBRANCH  10  27
TORSDOF 7
ENDMDL
