MODEL 1
REMARK VINA RESULT:      -6.0      0.000      0.000
REMARK  4 active torsions:
REMARK  status: ('A' for Active; 'I' for Inactive)
REMARK    1  A    between atoms: O_1  and  C_15 
REMARK    2  A    between atoms: O_1  and  C_22 
REMARK    3  A    between atoms: O_2  and  C_19 
REMARK    4  A    between atoms: C_21  and  C_22 
ROOT
HETATM    1  O   UNK     0      -1.786   7.730  -9.624  0.00  0.00    -0.290 OA
HETATM    2  O   UNK     0      -4.262   3.112 -10.627  0.00  0.00     0.000 OA
HETATM    3  O   UNK     0      -6.741   4.655 -11.608  0.00  0.00    -0.223 OA
HETATM    4  O   UNK     0      -5.500   2.344 -11.123  0.00  0.00     0.000 OA
HETATM    5  N   UNK     0       0.695   3.108  -8.655  0.00  0.00    -0.254 NA
HETATM    6  N   UNK     0      -5.501   3.883 -11.118  0.00  0.00     0.000 N 
HETATM    7  C   UNK     0      -1.784   4.651  -9.635  0.00  0.00     0.006 A 
HETATM    8  C   UNK     0      -0.545   5.420  -9.139  0.00  0.00     0.060 A 
HETATM    9  C   UNK     0      -1.783   3.110  -9.641  0.00  0.00     0.038 A 
HETATM   10  C   UNK     0      -3.024   5.422 -10.126  0.00  0.00    -0.001 A 
HETATM   11  C   UNK     0       0.694   4.649  -8.649  0.00  0.00     0.063 A 
HETATM   12  C   UNK     0      -0.544   2.339  -9.151  0.00  0.00     0.061 A 
HETATM   13  C   UNK     0      -0.546   6.959  -9.134  0.00  0.00     0.200 A 
HETATM   14  C   UNK     0      -4.262   4.653 -10.622  0.00  0.00     0.061 A 
HETATM   15  C   UNK     0      -3.024   6.962 -10.120  0.00  0.00     0.076 A 
HETATM   16  C   UNK     0       1.933   5.417  -8.153  0.00  0.00     0.052 C 
HETATM   17  C   UNK     0      -3.022   2.341 -10.137  0.00  0.00     0.117 A 
HETATM   18  C   UNK     0      -0.543   0.799  -9.156  0.00  0.00     0.052 C 
HETATM   19  C   UNK     0      -5.502   5.424 -11.112  0.00  0.00     0.157 A 
HETATM   20  C   UNK     0      -4.264   7.733 -10.611  0.00  0.00     0.054 A 
HETATM   21  C   UNK     0      -5.503   6.964 -11.106  0.00  0.00     0.040 A 
ENDROOT
BRANCH  13  22
HETATM   22  O   UNK     0       0.693   7.728  -8.638  0.00  0.00    -0.311 OA
BRANCH  22  23
HETATM   23  C   UNK     0       0.522   9.070  -7.902  0.00  0.00     0.151 C 
BRANCH  23  24
HETATM   24  C   UNK     0       1.655   9.606  -7.007  0.00  0.00     0.030 C 
HETATM   25  C   UNK     0       1.325  10.528  -5.817  0.00  0.00     0.003 C 
HETATM   26  C   UNK     0       3.116   9.221  -7.300  0.00  0.00     0.003 C 
ENDBRANCH  23  24
ENDBRANCH  22  23
ENDBRANCH  13  22
BRANCH  17  27
HETATM   27  O   UNK     0      -3.021   0.802 -10.142  0.00  0.00    -0.326 OA
HETATM   28  C   UNK     0      -2.875   0.037 -11.471  0.00  0.00     0.181 C 
ENDBRANCH  17  27
TORSDOF 4
ENDMDL
MODEL 2
REMARK VINA RESULT:      -6.0     25.686     27.374
REMARK  4 active torsions:
REMARK  status: ('A' for Active; 'I' for Inactive)
REMARK    1  A    between atoms: O_1  and  C_15 
REMARK    2  A    between atoms: O_1  and  C_22 
REMARK    3  A    between atoms: O_2  and  C_19 
REMARK    4  A    between atoms: C_21  and  C_22 
ROOT
HETATM    1  O   UNK     0     -20.410   1.004  11.489  0.00  0.00    -0.290 OA
HETATM    2  O   UNK     0     -21.861   4.488   7.718  0.00  0.00     0.000 OA
HETATM    3  O   UNK     0     -22.980   6.368   9.886  0.00  0.00    -0.223 OA
HETATM    4  O   UNK     0     -22.504   5.829   7.318  0.00  0.00     0.000 OA
HETATM    5  N   UNK     0     -19.457  -0.074   6.352  0.00  0.00    -0.254 NA
HETATM    6  N   UNK     0     -22.421   5.428   8.802  0.00  0.00     0.000 N 
HETATM    7  C   UNK     0     -20.576   1.806   8.520  0.00  0.00     0.006 A 
HETATM    8  C   UNK     0     -19.934   0.464   8.920  0.00  0.00     0.060 A 
HETATM    9  C   UNK     0     -20.659   2.207   7.035  0.00  0.00     0.038 A 
HETATM   10  C   UNK     0     -21.136   2.746   9.604  0.00  0.00    -0.001 A 
HETATM   11  C   UNK     0     -19.374  -0.475   7.836  0.00  0.00     0.063 A 
HETATM   12  C   UNK     0     -20.100   1.267   5.951  0.00  0.00     0.061 A 
HETATM   13  C   UNK     0     -19.851   0.064  10.404  0.00  0.00     0.200 A 
HETATM   14  C   UNK     0     -21.778   4.087   9.203  0.00  0.00     0.061 A 
HETATM   15  C   UNK     0     -21.053   2.344  11.089  0.00  0.00     0.076 A 
HETATM   16  C   UNK     0     -18.732  -1.816   8.236  0.00  0.00     0.052 C 
HETATM   17  C   UNK     0     -21.302   3.548   6.634  0.00  0.00     0.117 A 
HETATM   18  C   UNK     0     -20.183   1.669   4.466  0.00  0.00     0.052 C 
HETATM   19  C   UNK     0     -22.338   5.027  10.287  0.00  0.00     0.157 A 
HETATM   20  C   UNK     0     -21.612   3.284  12.173  0.00  0.00     0.054 A 
HETATM   21  C   UNK     0     -22.255   4.625  11.772  0.00  0.00     0.040 A 
ENDROOT
BRANCH  13  22
HETATM   22  O   UNK     0     -19.208  -1.278  10.805  0.00  0.00    -0.311 OA
BRANCH  22  23
HETATM   23  C   UNK     0     -20.060  -2.368  11.479  0.00  0.00     0.151 C 
BRANCH  23  24
HETATM   24  C   UNK     0     -21.390  -2.811  10.840  0.00  0.00     0.030 C 
HETATM   25  C   UNK     0     -21.410  -3.976   9.832  0.00  0.00     0.003 C 
HETATM   26  C   UNK     0     -22.700  -2.090  11.210  0.00  0.00     0.003 C 
ENDBRANCH  23  24
ENDBRANCH  22  23
ENDBRANCH  13  22
BRANCH  17  27
HETATM   27  O   UNK     0     -21.384   3.949   5.150  0.00  0.00    -0.326 OA
HETATM   28  C   UNK     0     -20.674   5.224   4.656  0.00  0.00     0.181 C 
ENDBRANCH  17  27
TORSDOF 4
ENDMDL
MODEL 3
REMARK VINA RESULT:      -5.9      1.660      4.459
REMARK  4 active torsions:
REMARK  status: ('A' for Active; 'I' for Inactive)
REMARK    1  A    between atoms: O_1  and  C_15 
REMARK    2  A    between atoms: O_1  and  C_22 
REMARK    3  A    between atoms: O_2  and  C_19 
REMARK    4  A    between atoms: C_21  and  C_22 
ROOT
HETATM    1  O   UNK     0      -0.254   5.658  -8.541  0.00  0.00    -0.290 OA
HETATM    2  O   UNK     0      -4.064   2.818 -10.965  0.00  0.00     0.000 OA
HETATM    3  O   UNK     0      -2.636   0.211 -10.157  0.00  0.00    -0.223 OA
HETATM    4  O   UNK     0      -4.659   1.457 -11.369  0.00  0.00     0.000 OA
HETATM    5  N   UNK     0      -4.301   8.148 -10.965  0.00  0.00    -0.254 NA
HETATM    6  N   UNK     0      -3.350   1.515 -10.561  0.00  0.00     0.000 N 
HETATM    7  C   UNK     0      -2.873   5.541 -10.157  0.00  0.00     0.006 A 
HETATM    8  C   UNK     0      -2.277   6.903  -9.753  0.00  0.00     0.060 A 
HETATM    9  C   UNK     0      -4.183   5.483 -10.965  0.00  0.00     0.038 A 
HETATM   10  C   UNK     0      -2.159   4.238  -9.752  0.00  0.00    -0.001 A 
HETATM   11  C   UNK     0      -2.991   8.206 -10.157  0.00  0.00     0.063 A 
HETATM   12  C   UNK     0      -4.897   6.786 -11.369  0.00  0.00     0.061 A 
HETATM   13  C   UNK     0      -0.968   6.961  -8.945  0.00  0.00     0.200 A 
HETATM   14  C   UNK     0      -2.754   2.876 -10.157  0.00  0.00     0.061 A 
HETATM   15  C   UNK     0      -0.849   4.296  -8.944  0.00  0.00     0.076 A 
HETATM   16  C   UNK     0      -2.396   9.567  -9.753  0.00  0.00     0.052 C 
HETATM   17  C   UNK     0      -4.778   4.121 -11.369  0.00  0.00     0.117 A 
HETATM   18  C   UNK     0      -6.206   6.727 -12.177  0.00  0.00     0.052 C 
HETATM   19  C   UNK     0      -2.040   1.573  -9.752  0.00  0.00     0.157 A 
HETATM   20  C   UNK     0      -0.135   2.993  -8.540  0.00  0.00     0.054 A 
HETATM   21  C   UNK     0      -0.730   1.632  -8.944  0.00  0.00     0.040 A 
ENDROOT
BRANCH  13  22
HETATM   22  O   UNK     0      -0.372   8.323  -8.541  0.00  0.00    -0.311 OA
BRANCH  22  23
HETATM   23  C   UNK     0       1.105   8.636  -8.842  0.00  0.00     0.151 C 
BRANCH  23  24
HETATM   24  C   UNK     0       2.191   8.303  -7.802  0.00  0.00     0.030 C 
HETATM   25  C   UNK     0       2.902   6.938  -7.841  0.00  0.00     0.003 C 
HETATM   26  C   UNK     0       2.565   9.336  -6.722  0.00  0.00     0.003 C 
ENDBRANCH  23  24
ENDBRANCH  22  23
ENDBRANCH  13  22
BRANCH  17  27
HETATM   27  O   UNK     0      -6.087   4.063 -12.177  0.00  0.00    -0.326 OA
HETATM   28  C   UNK     0      -6.086   3.487 -13.605  0.00  0.00     0.181 C 
ENDBRANCH  17  27
TORSDOF 4
ENDMDL
MODEL 4
REMARK VINA RESULT:      -5.7      2.458      4.432
REMARK  4 active torsions:
REMARK  status: ('A' for Active; 'I' for Inactive)
REMARK    1  A    between atoms: O_1  and  C_15 
REMARK    2  A    between atoms: O_1  and  C_22 
REMARK    3  A    between atoms: O_2  and  C_19 
REMARK    4  A    between atoms: C_21  and  C_22 
ROOT
HETATM    1  O   UNK     0      -4.640   7.987 -11.247  0.00  0.00    -0.290 OA
HETATM    2  O   UNK     0      -2.995   3.252  -9.421  0.00  0.00     0.000 OA
HETATM    3  O   UNK     0      -5.573   1.946 -10.485  0.00  0.00    -0.223 OA
HETATM    4  O   UNK     0      -3.228   1.743  -9.231  0.00  0.00     0.000 OA
HETATM    5  N   UNK     0       0.050   7.580  -8.738  0.00  0.00    -0.254 NA
HETATM    6  N   UNK     0      -4.284   2.599  -9.953  0.00  0.00     0.000 N 
HETATM    7  C   UNK     0      -2.528   6.273  -9.802  0.00  0.00     0.006 A 
HETATM    8  C   UNK     0      -2.295   7.784  -9.993  0.00  0.00     0.060 A 
HETATM    9  C   UNK     0      -1.472   5.416  -9.079  0.00  0.00     0.038 A 
HETATM   10  C   UNK     0      -3.817   5.620 -10.334  0.00  0.00    -0.001 A 
HETATM   11  C   UNK     0      -1.006   8.437  -9.460  0.00  0.00     0.063 A 
HETATM   12  C   UNK     0      -0.183   6.069  -8.547  0.00  0.00     0.061 A 
HETATM   13  C   UNK     0      -3.351   8.641 -10.715  0.00  0.00     0.200 A 
HETATM   14  C   UNK     0      -4.051   4.110 -10.144  0.00  0.00     0.061 A 
HETATM   15  C   UNK     0      -4.873   6.478 -11.057  0.00  0.00     0.076 A 
HETATM   16  C   UNK     0      -0.772   9.947  -9.651  0.00  0.00     0.052 C 
HETATM   17  C   UNK     0      -1.706   3.905  -8.889  0.00  0.00     0.117 A 
HETATM   18  C   UNK     0       0.873   5.212  -7.825  0.00  0.00     0.052 C 
HETATM   19  C   UNK     0      -5.340   3.457 -10.676  0.00  0.00     0.157 A 
HETATM   20  C   UNK     0      -6.163   5.825 -11.589  0.00  0.00     0.054 A 
HETATM   21  C   UNK     0      -6.396   4.314 -11.398  0.00  0.00     0.040 A 
ENDROOT
BRANCH  13  22
HETATM   22  O   UNK     0      -3.118  10.151 -10.905  0.00  0.00    -0.311 OA
BRANCH  22  23
HETATM   23  C   UNK     0      -4.220  11.028 -11.527  0.00  0.00     0.151 C 
BRANCH  23  24
HETATM   24  C   UNK     0      -5.464  11.402 -10.700  0.00  0.00     0.030 C 
HETATM   25  C   UNK     0      -5.369  12.494  -9.617  0.00  0.00     0.003 C 
HETATM   26  C   UNK     0      -6.803  10.686 -10.955  0.00  0.00     0.003 C 
ENDBRANCH  23  24
ENDBRANCH  22  23
ENDBRANCH  13  22
BRANCH  17  27
HETATM   27  O   UNK     0      -0.650   3.049  -8.167  0.00  0.00    -0.326 OA
HETATM   28  C   UNK     0       0.123   1.965  -8.941  0.00  0.00     0.181 C 
ENDBRANCH  17  27
TORSDOF 4
ENDMDL
MODEL 5
REMARK VINA RESULT:      -5.5      6.558     11.766
REMARK  4 active torsions:
REMARK  status: ('A' for Active; 'I' for Inactive)
REMARK    1  A    between atoms: O_1  and  C_15 
REMARK    2  A    between atoms: O_1  and  C_22 
REMARK    3  A    between atoms: O_2  and  C_19 
REMARK    4  A    between atoms: C_21  and  C_22 
ROOT
HETATM    1  O   UNK     0       5.403   9.188  -8.641  0.00  0.00    -0.290 OA
HETATM    2  O   UNK     0       6.465  11.888  -4.164  0.00  0.00     0.000 OA
HETATM    3  O   UNK     0       9.467  11.847  -4.850  0.00  0.00    -0.223 OA
HETATM    4  O   UNK     0       7.480  12.552  -3.217  0.00  0.00     0.000 OA
HETATM    5  N   UNK     0       1.431  10.599  -5.373  0.00  0.00    -0.254 NA
HETATM    6  N   UNK     0       7.966  11.867  -4.507  0.00  0.00     0.000 N 
HETATM    7  C   UNK     0       4.433  10.558  -6.059  0.00  0.00     0.006 A 
HETATM    8  C   UNK     0       3.417   9.893  -7.007  0.00  0.00     0.060 A 
HETATM    9  C   UNK     0       3.948  11.244  -4.768  0.00  0.00     0.038 A 
HETATM   10  C   UNK     0       5.934  10.538  -6.403  0.00  0.00    -0.001 A 
HETATM   11  C   UNK     0       1.916   9.914  -6.664  0.00  0.00     0.063 A 
HETATM   12  C   UNK     0       2.446  11.264  -4.425  0.00  0.00     0.061 A 
HETATM   13  C   UNK     0       3.902   9.208  -8.298  0.00  0.00     0.200 A 
HETATM   14  C   UNK     0       6.950  11.202  -5.455  0.00  0.00     0.061 A 
HETATM   15  C   UNK     0       6.419   9.852  -7.694  0.00  0.00     0.076 A 
HETATM   16  C   UNK     0       0.900   9.250  -7.611  0.00  0.00     0.052 C 
HETATM   17  C   UNK     0       4.963  11.908  -3.820  0.00  0.00     0.117 A 
HETATM   18  C   UNK     0       1.961  11.950  -3.134  0.00  0.00     0.052 C 
HETATM   19  C   UNK     0       8.451  11.182  -5.798  0.00  0.00     0.157 A 
HETATM   20  C   UNK     0       7.920   9.831  -8.037  0.00  0.00     0.054 A 
HETATM   21  C   UNK     0       8.936  10.496  -7.089  0.00  0.00     0.040 A 
ENDROOT
BRANCH  13  22
HETATM   22  O   UNK     0       2.886   8.543  -9.246  0.00  0.00    -0.311 OA
BRANCH  22  23
HETATM   23  C   UNK     0       3.071   7.073  -9.662  0.00  0.00     0.151 C 
BRANCH  23  24
HETATM   24  C   UNK     0       3.643   6.054  -8.659  0.00  0.00     0.030 C 
HETATM   25  C   UNK     0       5.018   5.410  -8.914  0.00  0.00     0.003 C 
HETATM   26  C   UNK     0       2.838   5.679  -7.400  0.00  0.00     0.003 C 
ENDBRANCH  23  24
ENDBRANCH  22  23
ENDBRANCH  13  22
BRANCH  17  27
HETATM   27  O   UNK     0       4.478  12.593  -2.530  0.00  0.00    -0.326 OA
HETATM   28  C   UNK     0       4.977  12.097  -1.160  0.00  0.00     0.181 C 
ENDBRANCH  17  27
TORSDOF 4
ENDMDL
MODEL 6
REMARK VINA RESULT:      -5.4      7.233     13.562
REMARK  4 active torsions:
REMARK  status: ('A' for Active; 'I' for Inactive)
REMARK    1  A    between atoms: O_1  and  C_15 
REMARK    2  A    between atoms: O_1  and  C_22 
REMARK    3  A    between atoms: O_2  and  C_19 
REMARK    4  A    between atoms: C_21  and  C_22 
ROOT
HETATM    1  O   UNK     0       5.920  10.425  -6.646  0.00  0.00    -0.290 OA
HETATM    2  O   UNK     0       7.850  12.856  -2.307  0.00  0.00     0.000 OA
HETATM    3  O   UNK     0      10.710  12.557  -3.411  0.00  0.00    -0.223 OA
HETATM    4  O   UNK     0       9.047  13.389  -1.499  0.00  0.00     0.000 OA
HETATM    5  N   UNK     0       2.596  12.088  -2.820  0.00  0.00    -0.254 NA
HETATM    6  N   UNK     0       9.280  12.706  -2.859  0.00  0.00     0.000 N 
HETATM    7  C   UNK     0       5.455  11.789  -3.924  0.00  0.00     0.006 A 
HETATM    8  C   UNK     0       4.258  11.256  -4.733  0.00  0.00     0.060 A 
HETATM    9  C   UNK     0       5.223  12.472  -2.563  0.00  0.00     0.038 A 
HETATM   10  C   UNK     0       6.885  11.640  -4.477  0.00  0.00    -0.001 A 
HETATM   11  C   UNK     0       2.828  11.405  -4.181  0.00  0.00     0.063 A 
HETATM   12  C   UNK     0       3.793  12.621  -2.011  0.00  0.00     0.061 A 
HETATM   13  C   UNK     0       4.490  10.574  -6.093  0.00  0.00     0.200 A 
HETATM   14  C   UNK     0       8.082  12.173  -3.668  0.00  0.00     0.061 A 
HETATM   15  C   UNK     0       7.117  10.957  -5.838  0.00  0.00     0.076 A 
HETATM   16  C   UNK     0       1.631  10.873  -4.989  0.00  0.00     0.052 C 
HETATM   17  C   UNK     0       6.420  13.005  -1.754  0.00  0.00     0.117 A 
HETATM   18  C   UNK     0       3.561  13.304  -0.650  0.00  0.00     0.052 C 
HETATM   19  C   UNK     0       9.512  12.024  -4.220  0.00  0.00     0.157 A 
HETATM   20  C   UNK     0       8.547  10.808  -6.390  0.00  0.00     0.054 A 
HETATM   21  C   UNK     0       9.745  11.341  -5.581  0.00  0.00     0.040 A 
ENDROOT
BRANCH  13  22
HETATM   22  O   UNK     0       3.293  10.041  -6.902  0.00  0.00    -0.311 OA
BRANCH  22  23
HETATM   23  C   UNK     0       3.476   8.837  -7.844  0.00  0.00     0.151 C 
BRANCH  23  24
HETATM   24  C   UNK     0       2.401   7.735  -7.902  0.00  0.00     0.030 C 
HETATM   25  C   UNK     0       0.935   8.103  -8.201  0.00  0.00     0.003 C 
HETATM   26  C   UNK     0       2.792   6.265  -7.662  0.00  0.00     0.003 C 
ENDBRANCH  23  24
ENDBRANCH  22  23
ENDBRANCH  13  22
BRANCH  17  27
HETATM   27  O   UNK     0       6.187  13.687  -0.394  0.00  0.00    -0.326 OA
HETATM   28  C   UNK     0       6.913  13.168   0.862  0.00  0.00     0.181 C 
ENDBRANCH  17  27
TORSDOF 4
ENDMDL
MODEL 7
REMARK VINA RESULT:      -5.4     27.305     28.723
REMARK  4 active torsions:
REMARK  status: ('A' for Active; 'I' for Inactive)
REMARK    1  A    between atoms: O_1  and  C_15 
REMARK    2  A    between atoms: O_1  and  C_22 
REMARK    3  A    between atoms: O_2  and  C_19 
REMARK    4  A    between atoms: C_21  and  C_22 
ROOT
HETATM    1  O   UNK     0     -21.313  -2.008   7.862  0.00  0.00    -0.290 OA
HETATM    2  O   UNK     0     -20.651  -5.075  12.178  0.00  0.00     0.000 OA
HETATM    3  O   UNK     0     -21.458  -7.555  10.539  0.00  0.00    -0.223 OA
HETATM    4  O   UNK     0     -20.688  -6.461  12.846  0.00  0.00     0.000 OA
HETATM    5  N   UNK     0     -19.771   0.178  12.478  0.00  0.00    -0.254 NA
HETATM    6  N   UNK     0     -21.055  -6.315  11.358  0.00  0.00     0.000 N 
HETATM    7  C   UNK     0     -20.578  -2.301  10.839  0.00  0.00     0.006 A 
HETATM    8  C   UNK     0     -20.542  -0.915  10.170  0.00  0.00     0.060 A 
HETATM    9  C   UNK     0     -20.211  -2.448  12.328  0.00  0.00     0.038 A 
HETATM   10  C   UNK     0     -20.982  -3.541  10.020  0.00  0.00    -0.001 A 
HETATM   11  C   UNK     0     -20.138   0.325  10.989  0.00  0.00     0.063 A 
HETATM   12  C   UNK     0     -19.808  -1.208  13.147  0.00  0.00     0.061 A 
HETATM   13  C   UNK     0     -20.909  -0.768   8.682  0.00  0.00     0.200 A 
HETATM   14  C   UNK     0     -21.018  -4.928  10.689  0.00  0.00     0.061 A 
HETATM   15  C   UNK     0     -21.349  -3.394   8.531  0.00  0.00     0.076 A 
HETATM   16  C   UNK     0     -20.102   1.712  10.321  0.00  0.00     0.052 C 
HETATM   17  C   UNK     0     -20.248  -3.835  12.997  0.00  0.00     0.117 A 
HETATM   18  C   UNK     0     -19.441  -1.355  14.636  0.00  0.00     0.052 C 
HETATM   19  C   UNK     0     -21.422  -6.168   9.869  0.00  0.00     0.157 A 
HETATM   20  C   UNK     0     -21.753  -4.634   7.712  0.00  0.00     0.054 A 
HETATM   21  C   UNK     0     -21.789  -6.021   8.381  0.00  0.00     0.040 A 
ENDROOT
BRANCH  13  22
HETATM   22  O   UNK     0     -20.873   0.619   8.013  0.00  0.00    -0.311 OA
BRANCH  22  23
HETATM   23  C   UNK     0     -20.260   0.780   6.609  0.00  0.00     0.151 C 
BRANCH  23  24
HETATM   24  C   UNK     0     -20.314   2.145   5.899  0.00  0.00     0.030 C 
HETATM   25  C   UNK     0     -21.092   3.314   6.532  0.00  0.00     0.003 C 
HETATM   26  C   UNK     0     -19.588   2.342   4.554  0.00  0.00     0.003 C 
ENDBRANCH  23  24
ENDBRANCH  22  23
ENDBRANCH  13  22
BRANCH  17  27
HETATM   27  O   UNK     0     -19.881  -3.981  14.485  0.00  0.00    -0.326 OA
HETATM   28  C   UNK     0     -18.635  -4.789  14.895  0.00  0.00     0.181 C 
ENDBRANCH  17  27
TORSDOF 4
ENDMDL
MODEL 8
REMARK VINA RESULT:      -5.3     22.442     26.425
REMARK  4 active torsions:
REMARK  status: ('A' for Active; 'I' for Inactive)
REMARK    1  A    between atoms: O_1  and  C_15 
REMARK    2  A    between atoms: O_1  and  C_22 
REMARK    3  A    between atoms: O_2  and  C_19 
REMARK    4  A    between atoms: C_21  and  C_22 
ROOT
HETATM    1  O   UNK     0       9.856 -12.497   0.768  0.00  0.00    -0.290 OA
HETATM    2  O   UNK     0      13.445 -16.437   1.007  0.00  0.00     0.000 OA
HETATM    3  O   UNK     0      15.680 -14.373   1.486  0.00  0.00    -0.223 OA
HETATM    4  O   UNK     0      14.900 -16.906   1.186  0.00  0.00     0.000 OA
HETATM    5  N   UNK     0       8.298 -17.563   0.168  0.00  0.00    -0.254 NA
HETATM    6  N   UNK     0      14.562 -15.405   1.247  0.00  0.00     0.000 N 
HETATM    7  C   UNK     0      10.533 -15.499   0.648  0.00  0.00     0.006 A 
HETATM    8  C   UNK     0       9.077 -15.030   0.468  0.00  0.00     0.060 A 
HETATM    9  C   UNK     0      10.871 -17.000   0.588  0.00  0.00     0.038 A 
HETATM   10  C   UNK     0      11.650 -14.467   0.887  0.00  0.00    -0.001 A 
HETATM   11  C   UNK     0       7.959 -16.062   0.228  0.00  0.00     0.063 A 
HETATM   12  C   UNK     0       9.754 -18.033   0.348  0.00  0.00     0.061 A 
HETATM   13  C   UNK     0       8.739 -13.529   0.528  0.00  0.00     0.200 A 
HETATM   14  C   UNK     0      13.106 -14.936   1.067  0.00  0.00     0.061 A 
HETATM   15  C   UNK     0      11.312 -12.965   0.947  0.00  0.00     0.076 A 
HETATM   16  C   UNK     0       6.504 -15.594   0.049  0.00  0.00     0.052 C 
HETATM   17  C   UNK     0      12.328 -17.469   0.767  0.00  0.00     0.117 A 
HETATM   18  C   UNK     0      10.093 -19.534   0.288  0.00  0.00     0.052 C 
HETATM   19  C   UNK     0      14.224 -13.904   1.307  0.00  0.00     0.157 A 
HETATM   20  C   UNK     0      12.429 -11.933   1.187  0.00  0.00     0.054 A 
HETATM   21  C   UNK     0      13.885 -12.402   1.367  0.00  0.00     0.040 A 
ENDROOT
BRANCH  13  22
HETATM   22  O   UNK     0       7.283 -13.060   0.349  0.00  0.00    -0.311 OA
BRANCH  22  23
HETATM   23  C   UNK     0       6.927 -12.067  -0.773  0.00  0.00     0.151 C 
BRANCH  23  24
HETATM   24  C   UNK     0       5.500 -11.495  -0.871  0.00  0.00     0.030 C 
HETATM   25  C   UNK     0       5.282  -9.971  -0.913  0.00  0.00     0.003 C 
HETATM   26  C   UNK     0       4.291 -12.448  -0.927  0.00  0.00     0.003 C 
ENDBRANCH  23  24
ENDBRANCH  22  23
ENDBRANCH  13  22
BRANCH  17  27
HETATM   27  O   UNK     0      12.666 -18.970   0.707  0.00  0.00    -0.326 OA
HETATM   28  C   UNK     0      13.645 -19.497  -0.358  0.00  0.00     0.181 C 
ENDBRANCH  17  27
TORSDOF 4
ENDMDL
MODEL 9
REMARK VINA RESULT:      -5.3     20.474     22.984
REMARK  4 active torsions:
REMARK  status: ('A' for Active; 'I' for Inactive)
REMARK    1  A    between atoms: O_1  and  C_15 
REMARK    2  A    between atoms: O_1  and  C_22 
REMARK    3  A    between atoms: O_2  and  C_19 
REMARK    4  A    between atoms: C_21  and  C_22 
ROOT
HETATM    1  O   UNK     0      -3.616   9.440  10.725  0.00  0.00    -0.290 OA
HETATM    2  O   UNK     0      -3.419   4.844  13.427  0.00  0.00     0.000 OA
HETATM    3  O   UNK     0      -1.111   3.886  11.628  0.00  0.00    -0.223 OA
HETATM    4  O   UNK     0      -2.793   3.456  13.652  0.00  0.00     0.000 OA
HETATM    5  N   UNK     0      -6.981   8.581  14.774  0.00  0.00    -0.254 NA
HETATM    6  N   UNK     0      -2.265   4.365  12.527  0.00  0.00     0.000 N 
HETATM    7  C   UNK     0      -4.672   7.622  12.975  0.00  0.00     0.006 A 
HETATM    8  C   UNK     0      -5.299   9.011  12.749  0.00  0.00     0.060 A 
HETATM    9  C   UNK     0      -5.200   6.712  14.101  0.00  0.00     0.038 A 
HETATM   10  C   UNK     0      -3.518   7.143  12.076  0.00  0.00    -0.001 A 
HETATM   11  C   UNK     0      -6.453   9.490  13.649  0.00  0.00     0.063 A 
HETATM   12  C   UNK     0      -6.355   7.192  15.000  0.00  0.00     0.061 A 
HETATM   13  C   UNK     0      -4.771   9.920  11.625  0.00  0.00     0.200 A 
HETATM   14  C   UNK     0      -2.891   5.754  12.301  0.00  0.00     0.061 A 
HETATM   15  C   UNK     0      -2.990   8.052  10.950  0.00  0.00     0.076 A 
HETATM   16  C   UNK     0      -7.079  10.878  13.424  0.00  0.00     0.052 C 
HETATM   17  C   UNK     0      -4.574   5.324  14.326  0.00  0.00     0.117 A 
HETATM   18  C   UNK     0      -6.882   6.282  16.125  0.00  0.00     0.052 C 
HETATM   19  C   UNK     0      -1.737   5.274  11.402  0.00  0.00     0.157 A 
HETATM   20  C   UNK     0      -1.836   7.573  10.051  0.00  0.00     0.054 A 
HETATM   21  C   UNK     0      -1.209   6.184  10.276  0.00  0.00     0.040 A 
ENDROOT
BRANCH  13  22
HETATM   22  O   UNK     0      -5.397  11.309  11.399  0.00  0.00    -0.311 OA
BRANCH  22  23
HETATM   23  C   UNK     0      -6.287  11.560  10.168  0.00  0.00     0.151 C 
BRANCH  23  24
HETATM   24  C   UNK     0      -6.499  12.996   9.652  0.00  0.00     0.030 C 
HETATM   25  C   UNK     0      -5.392  13.693   8.838  0.00  0.00     0.003 C 
HETATM   26  C   UNK     0      -7.817  13.735   9.950  0.00  0.00     0.003 C 
ENDBRANCH  23  24
ENDBRANCH  22  23
ENDBRANCH  13  22
BRANCH  17  27
HETATM   27  O   UNK     0      -5.102   4.415  15.451  0.00  0.00    -0.326 OA
HETATM   28  C   UNK     0      -5.813   3.094  15.104  0.00  0.00     0.181 C 
ENDBRANCH  17  27
TORSDOF 4
ENDMDL
MODEL 10
REMARK VINA RESULT:      -5.2     27.163     28.445
REMARK  4 active torsions:
REMARK  status: ('A' for Active; 'I' for Inactive)
REMARK    1  A    between atoms: O_1  and  C_15 
REMARK    2  A    between atoms: O_1  and  C_22 
REMARK    3  A    between atoms: O_2  and  C_19 
REMARK    4  A    between atoms: C_21  and  C_22 
ROOT
HETATM    1  O   UNK     0     -21.146   0.742  13.505  0.00  0.00    -0.290 OA
HETATM    2  O   UNK     0     -21.436   3.446   8.916  0.00  0.00     0.000 OA
HETATM    3  O   UNK     0     -22.815   5.779  10.378  0.00  0.00    -0.223 OA
HETATM    4  O   UNK     0     -21.853   4.705   8.134  0.00  0.00     0.000 OA
HETATM    5  N   UNK     0     -19.222  -1.407   9.018  0.00  0.00    -0.254 NA
HETATM    6  N   UNK     0     -22.126   4.613   9.647  0.00  0.00     0.000 N 
HETATM    7  C   UNK     0     -20.601   0.927  10.480  0.00  0.00     0.006 A 
HETATM    8  C   UNK     0     -20.184  -0.333  11.262  0.00  0.00     0.060 A 
HETATM    9  C   UNK     0     -20.329   1.019   8.967  0.00  0.00     0.038 A 
HETATM   10  C   UNK     0     -21.291   2.093  11.211  0.00  0.00    -0.001 A 
HETATM   11  C   UNK     0     -19.494  -1.500  10.531  0.00  0.00     0.063 A 
HETATM   12  C   UNK     0     -19.639  -0.148   8.236  0.00  0.00     0.061 A 
HETATM   13  C   UNK     0     -20.456  -0.425  12.774  0.00  0.00     0.200 A 
HETATM   14  C   UNK     0     -21.708   3.353  10.429  0.00  0.00     0.061 A 
HETATM   15  C   UNK     0     -21.563   2.001  12.724  0.00  0.00     0.076 A 
HETATM   16  C   UNK     0     -19.077  -2.759  11.312  0.00  0.00     0.052 C 
HETATM   17  C   UNK     0     -20.746   2.279   8.185  0.00  0.00     0.117 A 
HETATM   18  C   UNK     0     -19.367  -0.055   6.722  0.00  0.00     0.052 C 
HETATM   19  C   UNK     0     -22.398   4.520  11.160  0.00  0.00     0.157 A 
HETATM   20  C   UNK     0     -22.253   3.168  13.455  0.00  0.00     0.054 A 
HETATM   21  C   UNK     0     -22.670   4.427  12.673  0.00  0.00     0.040 A 
ENDROOT
BRANCH  13  22
HETATM   22  O   UNK     0     -20.039  -1.685  13.556  0.00  0.00    -0.311 OA
BRANCH  22  23
HETATM   23  C   UNK     0     -19.405  -1.549  14.953  0.00  0.00     0.151 C 
BRANCH  23  24
HETATM   24  C   UNK     0     -17.980  -2.075  15.206  0.00  0.00     0.030 C 
HETATM   25  C   UNK     0     -16.962  -1.208  15.971  0.00  0.00     0.003 C 
HETATM   26  C   UNK     0     -17.571  -3.469  14.693  0.00  0.00     0.003 C 
ENDBRANCH  23  24
ENDBRANCH  22  23
ENDBRANCH  13  22
BRANCH  17  27
HETATM   27  O   UNK     0     -20.474   2.371   6.672  0.00  0.00    -0.326 OA
HETATM   28  C   UNK     0     -21.651   2.412   5.679  0.00  0.00     0.181 C 
ENDBRANCH  17  27
TORSDOF 4
ENDMDL
