MODEL 1
REMARK VINA RESULT:      -5.3      0.000      0.000
REMARK  2 active torsions:
REMARK  status: ('A' for Active; 'I' for Inactive)
REMARK    1  A    between atoms: N_6  and  C_14 
REMARK    2  A    between atoms: C_9  and  C_10 
ROOT
HETATM    1  O   UNK     0      -0.099  10.125 -10.015  0.00  0.00    -0.168 OA
HETATM    2  N   UNK     0      -2.142   8.580 -10.502  0.00  0.00    -0.223 NA
HETATM    3  N   UNK     0      -0.114   6.126  -9.145  0.00  0.00    -0.241 NA
HETATM    4  C   UNK     0      -2.696   5.885 -10.136  0.00  0.00     0.014 A 
HETATM    5  C   UNK     0      -3.026   7.322 -10.584  0.00  0.00     0.059 A 
HETATM    6  C   UNK     0      -1.400   5.354  -9.496  0.00  0.00     0.071 A 
HETATM    7  C   UNK     0      -3.766   4.702 -10.309  0.00  0.00     0.075 A 
HETATM    8  C   UNK     0      -4.449   7.674 -11.236  0.00  0.00     0.052 A 
HETATM    9  C   UNK     0       0.193   7.621  -9.348  0.00  0.00     0.146 A 
HETATM   10  C   UNK     0      -5.197   5.020 -10.957  0.00  0.00     0.087 A 
HETATM   11  C   UNK     0      -0.709   8.714  -9.952  0.00  0.00     0.232 A 
HETATM   12  C   UNK     0      -5.541   6.515 -11.424  0.00  0.00     0.052 A 
ENDROOT
BRANCH   6  13
HETATM   13  C   UNK     0      -1.388   3.850  -9.162  0.00  0.00    -0.027 A 
HETATM   14  C   UNK     0      -2.357   3.289  -8.103  0.00  0.00     0.024 A 
HETATM   15  C   UNK     0      -2.344   1.785  -7.770  0.00  0.00     0.004 A 
HETATM   16  C   UNK     0      -1.365   0.844  -8.493  0.00  0.00     0.001 A 
HETATM   17  C   UNK     0      -0.397   1.405  -9.551  0.00  0.00     0.004 A 
HETATM   18  C   UNK     0      -0.408   2.908  -9.885  0.00  0.00     0.024 A 
ENDBRANCH   6  13
BRANCH  10  19
HETATM   19  N   UNK     0      -6.236   3.895 -11.131  0.00  0.00    -0.122 N 
HETATM   20  O   UNK     0      -7.586   4.192 -11.809  0.00  0.00    -0.532 OA
HETATM   21  O   UNK     0      -5.923   2.475 -10.626  0.00  0.00    -0.532 OA
ENDBRANCH  10  19
TORSDOF 2
ENDMDL
MODEL 2
REMARK VINA RESULT:      -5.2      2.458      2.850
REMARK  2 active torsions:
REMARK  status: ('A' for Active; 'I' for Inactive)
REMARK    1  A    between atoms: N_6  and  C_14 
REMARK    2  A    between atoms: C_9  and  C_10 
ROOT
HETATM    1  O   UNK     0      -4.397  11.176 -11.579  0.00  0.00    -0.168 OA
HETATM    2  N   UNK     0      -4.861   8.618 -11.373  0.00  0.00    -0.223 NA
HETATM    3  N   UNK     0      -1.610   8.519 -10.192  0.00  0.00    -0.241 NA
HETATM    4  C   UNK     0      -3.395   6.420 -10.526  0.00  0.00     0.014 A 
HETATM    5  C   UNK     0      -4.650   7.121 -11.079  0.00  0.00     0.059 A 
HETATM    6  C   UNK     0      -2.043   7.042 -10.132  0.00  0.00     0.071 A 
HETATM    7  C   UNK     0      -3.376   4.833 -10.288  0.00  0.00     0.075 A 
HETATM    8  C   UNK     0      -5.972   6.285 -11.431  0.00  0.00     0.052 A 
HETATM    9  C   UNK     0      -2.424   9.739 -10.662  0.00  0.00     0.146 A 
HETATM   10  C   UNK     0      -4.681   3.967 -10.630  0.00  0.00     0.087 A 
HETATM   11  C   UNK     0      -3.871   9.783 -11.187  0.00  0.00     0.232 A 
HETATM   12  C   UNK     0      -5.988   4.698 -11.206  0.00  0.00     0.052 A 
ENDROOT
BRANCH   6  13
HETATM   13  C   UNK     0      -0.982   6.056  -9.607  0.00  0.00    -0.027 A 
HETATM   14  C   UNK     0      -0.951   5.680  -8.114  0.00  0.00     0.024 A 
HETATM   15  C   UNK     0       0.111   4.694  -7.590  0.00  0.00     0.004 A 
HETATM   16  C   UNK     0       1.140   4.086  -8.559  0.00  0.00     0.001 A 
HETATM   17  C   UNK     0       1.110   4.462 -10.051  0.00  0.00     0.004 A 
HETATM   18  C   UNK     0       0.049   5.447 -10.576  0.00  0.00     0.024 A 
ENDBRANCH   6  13
BRANCH  10  19
HETATM   19  N   UNK     0      -4.680   2.442 -10.407  0.00  0.00    -0.122 N 
HETATM   20  O   UNK     0      -4.726   1.488 -11.615  0.00  0.00    -0.532 OA
HETATM   21  O   UNK     0      -4.632   1.874  -8.977  0.00  0.00    -0.532 OA
ENDBRANCH  10  19
TORSDOF 2
ENDMDL
MODEL 3
REMARK VINA RESULT:      -5.0     20.479     21.928
REMARK  2 active torsions:
REMARK  status: ('A' for Active; 'I' for Inactive)
REMARK    1  A    between atoms: N_6  and  C_14 
REMARK    2  A    between atoms: C_9  and  C_10 
ROOT
HETATM    1  O   UNK     0       0.003   0.423  11.028  0.00  0.00    -0.168 OA
HETATM    2  N   UNK     0       0.908   2.818  10.538  0.00  0.00    -0.223 NA
HETATM    3  N   UNK     0      -2.245   3.800  11.570  0.00  0.00    -0.241 NA
HETATM    4  C   UNK     0      -0.133   5.384  10.717  0.00  0.00     0.014 A 
HETATM    5  C   UNK     0       0.967   4.352  10.407  0.00  0.00     0.059 A 
HETATM    6  C   UNK     0      -1.562   5.139  11.234  0.00  0.00     0.071 A 
HETATM    7  C   UNK     0       0.130   6.954  10.511  0.00  0.00     0.075 A 
HETATM    8  C   UNK     0       2.405   4.817   9.870  0.00  0.00     0.052 A 
HETATM    9  C   UNK     0      -1.667   2.376  11.471  0.00  0.00     0.146 A 
HETATM   10  C   UNK     0       1.557   7.453   9.976  0.00  0.00     0.087 A 
HETATM   11  C   UNK     0      -0.264   1.939  11.012  0.00  0.00     0.232 A 
HETATM   12  C   UNK     0       2.702   6.378   9.654  0.00  0.00     0.052 A 
ENDROOT
BRANCH   6  13
HETATM   13  C   UNK     0      -2.422   6.399  11.444  0.00  0.00    -0.027 A 
HETATM   14  C   UNK     0      -2.455   7.498  10.365  0.00  0.00     0.024 A 
HETATM   15  C   UNK     0      -3.316   8.758  10.576  0.00  0.00     0.004 A 
HETATM   16  C   UNK     0      -4.143   8.918  11.864  0.00  0.00     0.001 A 
HETATM   17  C   UNK     0      -4.111   7.820  12.943  0.00  0.00     0.004 A 
HETATM   18  C   UNK     0      -3.250   6.560  12.733  0.00  0.00     0.024 A 
ENDBRANCH   6  13
BRANCH  10  19
HETATM   19  N   UNK     0       1.825   8.957   9.774  0.00  0.00    -0.122 N 
HETATM   20  O   UNK     0       0.831   9.815   8.970  0.00  0.00    -0.532 OA
HETATM   21  O   UNK     0       3.088   9.600  10.375  0.00  0.00    -0.532 OA
ENDBRANCH  10  19
TORSDOF 2
ENDMDL
MODEL 4
REMARK VINA RESULT:      -4.8      3.536      6.026
REMARK  2 active torsions:
REMARK  status: ('A' for Active; 'I' for Inactive)
REMARK    1  A    between atoms: N_6  and  C_14 
REMARK    2  A    between atoms: C_9  and  C_10 
ROOT
HETATM    1  O   UNK     0      -7.347   3.855 -11.937  0.00  0.00    -0.168 OA
HETATM    2  N   UNK     0      -5.175   2.417 -12.045  0.00  0.00    -0.223 NA
HETATM    3  N   UNK     0      -3.801   5.064 -10.291  0.00  0.00    -0.241 NA
HETATM    4  C   UNK     0      -2.572   2.723 -11.134  0.00  0.00     0.014 A 
HETATM    5  C   UNK     0      -3.713   1.974 -11.848  0.00  0.00     0.059 A 
HETATM    6  C   UNK     0      -2.610   4.097 -10.442  0.00  0.00     0.071 A 
HETATM    7  C   UNK     0      -1.103   2.083 -11.037  0.00  0.00     0.075 A 
HETATM    8  C   UNK     0      -3.465   0.536 -12.513  0.00  0.00     0.052 A 
HETATM    9  C   UNK     0      -5.245   4.894 -10.796  0.00  0.00     0.146 A 
HETATM   10  C   UNK     0      -0.821   0.647 -11.690  0.00  0.00     0.087 A 
HETATM   11  C   UNK     0      -5.857   3.716 -11.577  0.00  0.00     0.232 A 
HETATM   12  C   UNK     0      -2.010  -0.132 -12.433  0.00  0.00     0.052 A 
ENDROOT
BRANCH   6  13
HETATM   13  C   UNK     0      -1.284   4.568  -9.817  0.00  0.00    -0.027 A 
HETATM   14  C   UNK     0      -1.003   4.313  -8.324  0.00  0.00     0.024 A 
HETATM   15  C   UNK     0       0.324   4.784  -7.699  0.00  0.00     0.004 A 
HETATM   16  C   UNK     0       1.368   5.510  -8.567  0.00  0.00     0.001 A 
HETATM   17  C   UNK     0       1.087   5.765 -10.059  0.00  0.00     0.004 A 
HETATM   18  C   UNK     0      -0.239   5.294 -10.684  0.00  0.00     0.024 A 
ENDBRANCH   6  13
BRANCH  10  19
HETATM   19  N   UNK     0       0.584   0.019 -11.605  0.00  0.00    -0.122 N 
HETATM   20  O   UNK     0       1.744   0.616 -12.422  0.00  0.00    -0.532 OA
HETATM   21  O   UNK     0       0.826  -1.205 -10.703  0.00  0.00    -0.532 OA
ENDBRANCH  10  19
TORSDOF 2
ENDMDL
MODEL 5
REMARK VINA RESULT:      -4.8     19.812     20.928
REMARK  2 active torsions:
REMARK  status: ('A' for Active; 'I' for Inactive)
REMARK    1  A    between atoms: N_6  and  C_14 
REMARK    2  A    between atoms: C_9  and  C_10 
ROOT
HETATM    1  O   UNK     0      -0.075  12.123  11.057  0.00  0.00    -0.168 OA
HETATM    2  N   UNK     0      -0.669   9.586  10.964  0.00  0.00    -0.223 NA
HETATM    3  N   UNK     0       2.685   9.228  10.192  0.00  0.00    -0.241 NA
HETATM    4  C   UNK     0       0.748   7.256  10.445  0.00  0.00     0.014 A 
HETATM    5  C   UNK     0      -0.517   8.062  10.795  0.00  0.00     0.059 A 
HETATM    6  C   UNK     0       2.172   7.775  10.176  0.00  0.00     0.071 A 
HETATM    7  C   UNK     0       0.696   5.658  10.315  0.00  0.00     0.075 A 
HETATM    8  C   UNK     0      -1.921   7.326  11.040  0.00  0.00     0.052 A 
HETATM    9  C   UNK     0       1.899  10.520  10.480  0.00  0.00     0.146 A 
HETATM   10  C   UNK     0      -0.691   4.890  10.553  0.00  0.00     0.087 A 
HETATM   11  C   UNK     0       0.406  10.679  10.823  0.00  0.00     0.232 A 
HETATM   12  C   UNK     0      -2.008   5.729  10.918  0.00  0.00     0.052 A 
ENDROOT
BRANCH   6  13
HETATM   13  C   UNK     0       3.224   6.699   9.849  0.00  0.00    -0.027 A 
HETATM   14  C   UNK     0       4.142   6.156  10.960  0.00  0.00     0.024 A 
HETATM   15  C   UNK     0       5.195   5.080  10.632  0.00  0.00     0.004 A 
HETATM   16  C   UNK     0       5.328   4.547   9.194  0.00  0.00     0.001 A 
HETATM   17  C   UNK     0       4.410   5.089   8.083  0.00  0.00     0.004 A 
HETATM   18  C   UNK     0       3.359   6.165   8.410  0.00  0.00     0.024 A 
ENDBRANCH   6  13
BRANCH  10  19
HETATM   19  N   UNK     0      -0.758   3.355  10.432  0.00  0.00    -0.122 N 
HETATM   20  O   UNK     0       0.101   2.472  11.355  0.00  0.00    -0.532 OA
HETATM   21  O   UNK     0      -1.685   2.706   9.387  0.00  0.00    -0.532 OA
ENDBRANCH  10  19
TORSDOF 2
ENDMDL
MODEL 6
REMARK VINA RESULT:      -4.6     25.710     27.551
REMARK  2 active torsions:
REMARK  status: ('A' for Active; 'I' for Inactive)
REMARK    1  A    between atoms: N_6  and  C_14 
REMARK    2  A    between atoms: C_9  and  C_10 
ROOT
HETATM    1  O   UNK     0     -22.796   3.348  14.552  0.00  0.00    -0.168 OA
HETATM    2  N   UNK     0     -21.605   1.944  12.706  0.00  0.00    -0.223 NA
HETATM    3  N   UNK     0     -22.939   4.325  10.580  0.00  0.00    -0.241 NA
HETATM    4  C   UNK     0     -21.369   2.127   9.947  0.00  0.00     0.014 A 
HETATM    5  C   UNK     0     -21.111   1.482  11.322  0.00  0.00     0.059 A 
HETATM    6  C   UNK     0     -22.182   3.392   9.617  0.00  0.00     0.071 A 
HETATM    7  C   UNK     0     -20.759   1.484   8.609  0.00  0.00     0.075 A 
HETATM    8  C   UNK     0     -20.227   0.150  11.454  0.00  0.00     0.052 A 
HETATM    9  C   UNK     0     -23.070   4.224  12.111  0.00  0.00     0.146 A 
HETATM   10  C   UNK     0     -19.871   0.153   8.705  0.00  0.00     0.087 A 
HETATM   11  C   UNK     0     -22.476   3.164  13.057  0.00  0.00     0.232 A 
HETATM   12  C   UNK     0     -19.603  -0.519  10.137  0.00  0.00     0.052 A 
ENDROOT
BRANCH   6  13
HETATM   13  C   UNK     0     -22.246   3.775   8.127  0.00  0.00    -0.027 A 
HETATM   14  C   UNK     0     -23.277   3.099   7.202  0.00  0.00     0.024 A 
HETATM   15  C   UNK     0     -23.341   3.483   5.711  0.00  0.00     0.004 A 
HETATM   16  C   UNK     0     -22.376   4.541   5.147  0.00  0.00     0.001 A 
HETATM   17  C   UNK     0     -21.346   5.216   6.071  0.00  0.00     0.004 A 
HETATM   18  C   UNK     0     -21.281   4.833   7.561  0.00  0.00     0.024 A 
ENDBRANCH   6  13
BRANCH  10  19
HETATM   19  N   UNK     0     -19.278  -0.477   7.430  0.00  0.00    -0.122 N 
HETATM   20  O   UNK     0     -19.280   0.313   6.109  0.00  0.00    -0.532 OA
HETATM   21  O   UNK     0     -18.684  -1.897   7.478  0.00  0.00    -0.532 OA
ENDBRANCH  10  19
TORSDOF 2
ENDMDL
MODEL 7
REMARK VINA RESULT:      -4.5     17.037     18.935
REMARK  2 active torsions:
REMARK  status: ('A' for Active; 'I' for Inactive)
REMARK    1  A    between atoms: N_6  and  C_14 
REMARK    2  A    between atoms: C_9  and  C_10 
ROOT
HETATM    1  O   UNK     0     -14.095  13.761   0.169  0.00  0.00    -0.168 OA
HETATM    2  N   UNK     0     -16.136  12.227   0.695  0.00  0.00    -0.223 NA
HETATM    3  N   UNK     0     -16.192  11.784  -2.736  0.00  0.00    -0.241 NA
HETATM    4  C   UNK     0     -17.878  10.689  -0.822  0.00  0.00     0.014 A 
HETATM    5  C   UNK     0     -17.328  11.272   0.493  0.00  0.00     0.059 A 
HETATM    6  C   UNK     0     -17.373  10.917  -2.259  0.00  0.00     0.071 A 
HETATM    7  C   UNK     0     -19.143   9.701  -0.819  0.00  0.00     0.075 A 
HETATM    8  C   UNK     0     -18.004  10.908   1.902  0.00  0.00     0.052 A 
HETATM    9  C   UNK     0     -15.226  12.637  -1.894  0.00  0.00     0.146 A 
HETATM   10  C   UNK     0     -19.842   9.317   0.571  0.00  0.00     0.087 A 
HETATM   11  C   UNK     0     -15.201  12.834  -0.367  0.00  0.00     0.232 A 
HETATM   12  C   UNK     0     -19.269   9.924   1.941  0.00  0.00     0.052 A 
ENDROOT
BRANCH   6  13
HETATM   13  C   UNK     0     -18.151  10.180  -3.365  0.00  0.00    -0.027 A 
HETATM   14  C   UNK     0     -19.367  10.852  -4.030  0.00  0.00     0.024 A 
HETATM   15  C   UNK     0     -20.144  10.115  -5.136  0.00  0.00     0.004 A 
HETATM   16  C   UNK     0     -19.706   8.707  -5.577  0.00  0.00     0.001 A 
HETATM   17  C   UNK     0     -18.491   8.034  -4.913  0.00  0.00     0.004 A 
HETATM   18  C   UNK     0     -17.713   8.771  -3.807  0.00  0.00     0.024 A 
ENDBRANCH   6  13
BRANCH  10  19
HETATM   19  N   UNK     0     -21.057   8.369   0.591  0.00  0.00    -0.122 N 
HETATM   20  O   UNK     0     -22.271   8.694   1.481  0.00  0.00    -0.532 OA
HETATM   21  O   UNK     0     -21.057   7.099  -0.278  0.00  0.00    -0.532 OA
ENDBRANCH  10  19
TORSDOF 2
ENDMDL
MODEL 8
REMARK VINA RESULT:      -4.5     17.871     19.620
REMARK  2 active torsions:
REMARK  status: ('A' for Active; 'I' for Inactive)
REMARK    1  A    between atoms: N_6  and  C_14 
REMARK    2  A    between atoms: C_9  and  C_10 
ROOT
HETATM    1  O   UNK     0     -15.602  15.521   1.733  0.00  0.00    -0.168 OA
HETATM    2  N   UNK     0     -17.132  13.440   2.091  0.00  0.00    -0.223 NA
HETATM    3  N   UNK     0     -16.448  12.848  -1.249  0.00  0.00    -0.241 NA
HETATM    4  C   UNK     0     -18.023  11.359   0.485  0.00  0.00     0.014 A 
HETATM    5  C   UNK     0     -17.918  12.146   1.805  0.00  0.00     0.059 A 
HETATM    6  C   UNK     0     -17.369  11.672  -0.874  0.00  0.00     0.071 A 
HETATM    7  C   UNK     0     -18.902  10.021   0.392  0.00  0.00     0.075 A 
HETATM    8  C   UNK     0     -18.684  11.649   3.123  0.00  0.00     0.052 A 
HETATM    9  C   UNK     0     -15.954  14.002  -0.358  0.00  0.00     0.146 A 
HETATM   10  C   UNK     0     -19.682   9.495   1.691  0.00  0.00     0.087 A 
HETATM   11  C   UNK     0     -16.258  14.266   1.129  0.00  0.00     0.232 A 
HETATM   12  C   UNK     0     -19.572  10.314   3.066  0.00  0.00     0.052 A 
ENDROOT
BRANCH   6  13
HETATM   13  C   UNK     0     -17.677  10.676  -2.008  0.00  0.00    -0.027 A 
HETATM   14  C   UNK     0     -16.720   9.501  -2.282  0.00  0.00     0.024 A 
HETATM   15  C   UNK     0     -17.028   8.506  -3.416  0.00  0.00     0.004 A 
HETATM   16  C   UNK     0     -18.292   8.686  -4.276  0.00  0.00     0.001 A 
HETATM   17  C   UNK     0     -19.249   9.860  -4.003  0.00  0.00     0.004 A 
HETATM   18  C   UNK     0     -18.942  10.856  -2.869  0.00  0.00     0.024 A 
ENDBRANCH   6  13
BRANCH  10  19
HETATM   19  N   UNK     0     -20.530   8.211   1.620  0.00  0.00    -0.122 N 
HETATM   20  O   UNK     0     -20.918   7.471   2.913  0.00  0.00    -0.532 OA
HETATM   21  O   UNK     0     -20.991   7.669   0.254  0.00  0.00    -0.532 OA
ENDBRANCH  10  19
TORSDOF 2
ENDMDL
MODEL 9
REMARK VINA RESULT:      -4.4      4.386      5.999
REMARK  2 active torsions:
REMARK  status: ('A' for Active; 'I' for Inactive)
REMARK    1  A    between atoms: N_6  and  C_14 
REMARK    2  A    between atoms: C_9  and  C_10 
ROOT
HETATM    1  O   UNK     0      -5.663   2.962 -16.534  0.00  0.00    -0.168 OA
HETATM    2  N   UNK     0      -5.325   3.107 -13.953  0.00  0.00    -0.223 NA
HETATM    3  N   UNK     0      -3.040   0.568 -14.501  0.00  0.00    -0.241 NA
HETATM    4  C   UNK     0      -3.738   1.779 -12.104  0.00  0.00     0.014 A 
HETATM    5  C   UNK     0      -4.792   2.816 -12.537  0.00  0.00     0.059 A 
HETATM    6  C   UNK     0      -2.959   0.779 -12.977  0.00  0.00     0.071 A 
HETATM    7  C   UNK     0      -3.315   1.631 -10.563  0.00  0.00     0.075 A 
HETATM    8  C   UNK     0      -5.495   3.775 -11.461  0.00  0.00     0.052 A 
HETATM    9  C   UNK     0      -3.921   1.305 -15.527  0.00  0.00     0.146 A 
HETATM   10  C   UNK     0      -3.999   2.574  -9.461  0.00  0.00     0.087 A 
HETATM   11  C   UNK     0      -4.938   2.435 -15.283  0.00  0.00     0.232 A 
HETATM   12  C   UNK     0      -5.096   3.653  -9.913  0.00  0.00     0.052 A 
ENDROOT
BRANCH   6  13
HETATM   13  C   UNK     0      -1.967  -0.130 -12.228  0.00  0.00    -0.027 A 
HETATM   14  C   UNK     0      -2.450  -1.460 -11.620  0.00  0.00     0.024 A 
HETATM   15  C   UNK     0      -1.457  -2.369 -10.871  0.00  0.00     0.004 A 
HETATM   16  C   UNK     0       0.017  -1.949 -10.732  0.00  0.00     0.001 A 
HETATM   17  C   UNK     0       0.500  -0.619 -11.340  0.00  0.00     0.004 A 
HETATM   18  C   UNK     0      -0.492   0.290 -12.088  0.00  0.00     0.024 A 
ENDBRANCH   6  13
BRANCH  10  19
HETATM   19  N   UNK     0      -3.604   2.444  -7.977  0.00  0.00    -0.122 N 
HETATM   20  O   UNK     0      -4.067   3.504  -6.962  0.00  0.00    -0.532 OA
HETATM   21  O   UNK     0      -2.746   1.253  -7.511  0.00  0.00    -0.532 OA
ENDBRANCH  10  19
TORSDOF 2
ENDMDL
MODEL 10
REMARK VINA RESULT:      -4.3      1.917      2.371
REMARK  2 active torsions:
REMARK  status: ('A' for Active; 'I' for Inactive)
REMARK    1  A    between atoms: N_6  and  C_14 
REMARK    2  A    between atoms: C_9  and  C_10 
ROOT
HETATM    1  O   UNK     0       0.099   9.761 -12.888  0.00  0.00    -0.168 OA
HETATM    2  N   UNK     0      -2.063   8.330 -13.172  0.00  0.00    -0.223 NA
HETATM    3  N   UNK     0      -0.699   6.465 -10.596  0.00  0.00    -0.241 NA
HETATM    4  C   UNK     0      -3.095   6.068 -11.939  0.00  0.00     0.014 A 
HETATM    5  C   UNK     0      -3.115   7.226 -12.955  0.00  0.00     0.059 A 
HETATM    6  C   UNK     0      -2.021   5.730 -10.890  0.00  0.00     0.071 A 
HETATM    7  C   UNK     0      -4.301   5.012 -11.873  0.00  0.00     0.075 A 
HETATM    8  C   UNK     0      -4.340   7.407 -13.974  0.00  0.00     0.052 A 
HETATM    9  C   UNK     0      -0.127   7.721 -11.280  0.00  0.00     0.146 A 
HETATM   10  C   UNK     0      -5.541   5.163 -12.877  0.00  0.00     0.087 A 
HETATM   11  C   UNK     0      -0.734   8.551 -12.426  0.00  0.00     0.232 A 
HETATM   12  C   UNK     0      -5.561   6.368 -13.935  0.00  0.00     0.052 A 
ENDROOT
BRANCH   6  13
HETATM   13  C   UNK     0      -2.305   4.493 -10.018  0.00  0.00    -0.027 A 
HETATM   14  C   UNK     0      -1.858   3.097 -10.493  0.00  0.00     0.024 A 
HETATM   15  C   UNK     0      -2.142   1.860  -9.621  0.00  0.00     0.004 A 
HETATM   16  C   UNK     0      -2.872   2.018  -8.274  0.00  0.00     0.001 A 
HETATM   17  C   UNK     0      -3.318   3.413  -7.799  0.00  0.00     0.004 A 
HETATM   18  C   UNK     0      -3.035   4.650  -8.671  0.00  0.00     0.024 A 
ENDBRANCH   6  13
BRANCH  10  19
HETATM   19  N   UNK     0      -6.707   4.156 -12.826  0.00  0.00    -0.122 N 
HETATM   20  O   UNK     0      -7.698   4.185 -11.648  0.00  0.00    -0.532 OA
HETATM   21  O   UNK     0      -6.880   3.122 -13.953  0.00  0.00    -0.532 OA
ENDBRANCH  10  19
TORSDOF 2
ENDMDL
