MODEL 1
REMARK VINA RESULT:      -5.6      0.000      0.000
REMARK  1 active torsions:
REMARK  status: ('A' for Active; 'I' for Inactive)
REMARK    1  A    between atoms: C_3  and  C_9 
ROOT
HETATM    1  C   UNK     0       3.343  -8.749  -3.268  0.00  0.00     0.013 A 
HETATM    2  N   UNK     0       1.434 -10.330  -3.736  0.00  0.00    -0.241 NA
HETATM    3  C   UNK     0       2.363  -9.150  -4.021  0.00  0.00     0.071 A 
HETATM    4  N   UNK     0       3.642 -10.218  -1.047  0.00  0.00    -0.223 NA
HETATM    5  C   UNK     0       3.945  -9.219  -1.908  0.00  0.00     0.059 A 
HETATM    6  C   UNK     0       2.513 -11.237  -1.218  0.00  0.00     0.232 A 
HETATM    7  C   UNK     0       3.974  -7.537  -3.976  0.00  0.00     0.062 A 
HETATM    8  C   UNK     0       1.492 -11.277  -2.476  0.00  0.00     0.146 A 
HETATM    9  C   UNK     0       5.148  -8.479  -1.293  0.00  0.00     0.051 A 
HETATM   10  O   UNK     0       2.344 -12.289  -0.117  0.00  0.00    -0.168 OA
HETATM   11  C   UNK     0       5.171  -6.804  -3.360  0.00  0.00     0.018 A 
HETATM   12  C   UNK     0       5.758  -7.275  -2.018  0.00  0.00     0.040 A 
HETATM   13 Cl   UNK     0       5.795  -5.584  -4.087  0.00  0.00    -0.091 Cl
ENDROOT
BRANCH   3  14
HETATM   14  C   UNK     0       2.117  -8.367  -5.317  0.00  0.00    -0.027 A 
HETATM   15  C   UNK     0       1.116  -7.204  -5.336  0.00  0.00     0.024 A 
HETATM   16  C   UNK     0       0.864  -6.416  -6.624  0.00  0.00     0.004 A 
HETATM   17  C   UNK     0       1.627  -6.800  -7.909  0.00  0.00     0.001 A 
HETATM   18  C   UNK     0       2.637  -7.964  -7.913  0.00  0.00     0.004 A 
HETATM   19  C   UNK     0       2.880  -8.750  -6.601  0.00  0.00     0.024 A 
ENDBRANCH   3  14
TORSDOF 1
ENDMDL
MODEL 2
REMARK VINA RESULT:      -5.5     27.905     29.162
REMARK  1 active torsions:
REMARK  status: ('A' for Active; 'I' for Inactive)
REMARK    1  A    between atoms: C_3  and  C_9 
ROOT
HETATM    1  C   UNK     0     -20.226   0.871   8.848  0.00  0.00     0.013 A 
HETATM    2  N   UNK     0     -20.995   2.785   7.397  0.00  0.00    -0.241 NA
HETATM    3  C   UNK     0     -20.820   2.018   8.708  0.00  0.00     0.071 A 
HETATM    4  N   UNK     0     -19.270  -0.117   6.549  0.00  0.00    -0.223 NA
HETATM    5  C   UNK     0     -19.511  -0.122   7.880  0.00  0.00     0.059 A 
HETATM    6  C   UNK     0     -19.684   0.981   5.566  0.00  0.00     0.232 A 
HETATM    7  C   UNK     0     -20.307   0.514  10.344  0.00  0.00     0.062 A 
HETATM    8  C   UNK     0     -20.488   2.327   5.975  0.00  0.00     0.146 A 
HETATM    9  C   UNK     0     -18.901  -1.430   8.417  0.00  0.00     0.051 A 
HETATM   10  O   UNK     0     -19.308   0.784   4.094  0.00  0.00    -0.168 OA
HETATM   11  C   UNK     0     -19.698  -0.789  10.873  0.00  0.00     0.018 A 
HETATM   12  C   UNK     0     -18.996  -1.761   9.910  0.00  0.00     0.040 A 
HETATM   13 Cl   UNK     0     -19.789  -1.132  12.384  0.00  0.00    -0.091 Cl
ENDROOT
BRANCH   3  14
HETATM   14  C   UNK     0     -21.400   2.660   9.975  0.00  0.00    -0.027 A 
HETATM   15  C   UNK     0     -22.729   2.158  10.554  0.00  0.00     0.024 A 
HETATM   16  C   UNK     0     -23.316   2.792  11.818  0.00  0.00     0.004 A 
HETATM   17  C   UNK     0     -22.558   3.945  12.508  0.00  0.00     0.001 A 
HETATM   18  C   UNK     0     -21.221   4.466  11.944  0.00  0.00     0.004 A 
HETATM   19  C   UNK     0     -20.643   3.812  10.665  0.00  0.00     0.024 A 
ENDBRANCH   3  14
TORSDOF 1
ENDMDL
MODEL 3
REMARK VINA RESULT:      -5.5     11.695     13.843
REMARK  1 active torsions:
REMARK  status: ('A' for Active; 'I' for Inactive)
REMARK    1  A    between atoms: C_3  and  C_9 
ROOT
HETATM    1  C   UNK     0      -4.948  -9.220   6.028  0.00  0.00     0.013 A 
HETATM    2  N   UNK     0      -5.174 -10.202   3.716  0.00  0.00    -0.241 NA
HETATM    3  C   UNK     0      -5.602  -9.930   5.158  0.00  0.00     0.071 A 
HETATM    4  N   UNK     0      -2.663  -8.204   5.067  0.00  0.00    -0.223 NA
HETATM    5  C   UNK     0      -3.607  -8.424   6.011  0.00  0.00     0.059 A 
HETATM    6  C   UNK     0      -2.686  -8.743   3.634  0.00  0.00     0.232 A 
HETATM    7  C   UNK     0      -5.778  -9.242   7.325  0.00  0.00     0.062 A 
HETATM    8  C   UNK     0      -3.862  -9.672   3.019  0.00  0.00     0.146 A 
HETATM    9  C   UNK     0      -3.129  -7.676   7.270  0.00  0.00     0.051 A 
HETATM   10  O   UNK     0      -1.509  -8.371   2.725  0.00  0.00    -0.168 OA
HETATM   11  C   UNK     0      -5.298  -8.496   8.575  0.00  0.00     0.018 A 
HETATM   12  C   UNK     0      -3.974  -7.714   8.548  0.00  0.00     0.040 A 
HETATM   13 Cl   UNK     0      -6.146  -8.529   9.874  0.00  0.00    -0.091 Cl
ENDROOT
BRANCH   3  14
HETATM   14  C   UNK     0      -6.925 -10.553   5.622  0.00  0.00    -0.027 A 
HETATM   15  C   UNK     0      -6.966 -12.013   6.092  0.00  0.00     0.024 A 
HETATM   16  C   UNK     0      -8.282 -12.643   6.557  0.00  0.00     0.004 A 
HETATM   17  C   UNK     0      -9.572 -11.796   6.550  0.00  0.00     0.001 A 
HETATM   18  C   UNK     0      -9.553 -10.327   6.082  0.00  0.00     0.004 A 
HETATM   19  C   UNK     0      -8.214  -9.706   5.615  0.00  0.00     0.024 A 
ENDBRANCH   3  14
TORSDOF 1
ENDMDL
MODEL 4
REMARK VINA RESULT:      -5.2     27.976     29.059
REMARK  1 active torsions:
REMARK  status: ('A' for Active; 'I' for Inactive)
REMARK    1  A    between atoms: C_3  and  C_9 
ROOT
HETATM    1  C   UNK     0     -20.272   0.560   9.753  0.00  0.00     0.013 A 
HETATM    2  N   UNK     0     -21.077   1.510  11.946  0.00  0.00    -0.241 NA
HETATM    3  C   UNK     0     -20.875   1.490  10.431  0.00  0.00     0.071 A 
HETATM    4  N   UNK     0     -19.353  -1.440  11.281  0.00  0.00    -0.223 NA
HETATM    5  C   UNK     0     -19.571  -0.785  10.117  0.00  0.00     0.059 A 
HETATM    6  C   UNK     0     -19.790  -0.969  12.670  0.00  0.00     0.232 A 
HETATM    7  C   UNK     0     -20.325   0.990   8.276  0.00  0.00     0.062 A 
HETATM    8  C   UNK     0     -20.593   0.407  12.965  0.00  0.00     0.146 A 
HETATM    9  C   UNK     0     -18.945  -1.660   9.014  0.00  0.00     0.051 A 
HETATM   10  O   UNK     0     -19.440  -1.870  13.859  0.00  0.00    -0.168 OA
HETATM   11  C   UNK     0     -19.701   0.116   7.182  0.00  0.00     0.018 A 
HETATM   12  C   UNK     0     -19.011  -1.209   7.552  0.00  0.00     0.040 A 
HETATM   13 Cl   UNK     0     -19.763   0.564   5.698  0.00  0.00    -0.091 Cl
ENDROOT
BRANCH   3  14
HETATM   14  C   UNK     0     -21.435   2.677   9.637  0.00  0.00    -0.027 A 
HETATM   15  C   UNK     0     -20.541   3.883   9.322  0.00  0.00     0.024 A 
HETATM   16  C   UNK     0     -21.090   5.073   8.530  0.00  0.00     0.004 A 
HETATM   17  C   UNK     0     -22.556   5.051   8.049  0.00  0.00     0.001 A 
HETATM   18  C   UNK     0     -23.473   3.850   8.355  0.00  0.00     0.004 A 
HETATM   19  C   UNK     0     -22.900   2.655   9.157  0.00  0.00     0.024 A 
ENDBRANCH   3  14
TORSDOF 1
ENDMDL
MODEL 5
REMARK VINA RESULT:      -5.1      4.528      6.739
REMARK  1 active torsions:
REMARK  status: ('A' for Active; 'I' for Inactive)
REMARK    1  A    between atoms: C_3  and  C_9 
ROOT
HETATM    1  C   UNK     0      -0.539  -7.152  -6.032  0.00  0.00     0.013 A 
HETATM    2  N   UNK     0       0.273  -8.538  -4.088  0.00  0.00    -0.241 NA
HETATM    3  C   UNK     0      -0.775  -7.936  -5.023  0.00  0.00     0.071 A 
HETATM    4  N   UNK     0       2.065  -6.630  -6.383  0.00  0.00    -0.223 NA
HETATM    5  C   UNK     0       0.746  -6.543  -6.672  0.00  0.00     0.059 A 
HETATM    6  C   UNK     0       2.680  -7.435  -5.235  0.00  0.00     0.232 A 
HETATM    7  C   UNK     0      -1.906  -6.816  -6.657  0.00  0.00     0.062 A 
HETATM    8  C   UNK     0       1.833  -8.319  -4.174  0.00  0.00     0.146 A 
HETATM    9  C   UNK     0       0.642  -5.624  -7.904  0.00  0.00     0.051 A 
HETATM   10  O   UNK     0       4.205  -7.396  -5.088  0.00  0.00    -0.168 OA
HETATM   11  C   UNK     0      -2.004  -5.902  -7.883  0.00  0.00     0.018 A 
HETATM   12  C   UNK     0      -0.731  -5.306  -8.506  0.00  0.00     0.040 A 
HETATM   13 Cl   UNK     0      -3.390  -5.574  -8.499  0.00  0.00    -0.091 Cl
ENDROOT
BRANCH   3  14
HETATM   14  C   UNK     0      -2.242  -8.290  -4.746  0.00  0.00    -0.027 A 
HETATM   15  C   UNK     0      -2.876  -9.521  -5.408  0.00  0.00     0.024 A 
HETATM   16  C   UNK     0      -4.339  -9.882  -5.138  0.00  0.00     0.004 A 
HETATM   17  C   UNK     0      -5.176  -8.996  -4.192  0.00  0.00     0.001 A 
HETATM   18  C   UNK     0      -4.560  -7.756  -3.515  0.00  0.00     0.004 A 
HETATM   19  C   UNK     0      -3.079  -7.405  -3.800  0.00  0.00     0.024 A 
ENDBRANCH   3  14
TORSDOF 1
ENDMDL
MODEL 6
REMARK VINA RESULT:      -5.1     28.033     29.215
REMARK  1 active torsions:
REMARK  status: ('A' for Active; 'I' for Inactive)
REMARK    1  A    between atoms: C_3  and  C_9 
ROOT
HETATM    1  C   UNK     0     -20.478   1.088   8.841  0.00  0.00     0.013 A 
HETATM    2  N   UNK     0     -20.883   0.741  11.305  0.00  0.00    -0.241 NA
HETATM    3  C   UNK     0     -21.004   1.468   9.966  0.00  0.00     0.071 A 
HETATM    4  N   UNK     0     -19.083  -1.191   9.037  0.00  0.00    -0.223 NA
HETATM    5  C   UNK     0     -19.599  -0.120   8.392  0.00  0.00     0.059 A 
HETATM    6  C   UNK     0     -19.258  -1.511  10.524  0.00  0.00     0.232 A 
HETATM    7  C   UNK     0     -20.879   2.141   7.791  0.00  0.00     0.062 A 
HETATM    8  C   UNK     0     -20.099  -0.602  11.569  0.00  0.00     0.146 A 
HETATM    9  C   UNK     0     -19.144  -0.249   6.925  0.00  0.00     0.051 A 
HETATM   10  O   UNK     0     -18.586  -2.783  11.052  0.00  0.00    -0.168 OA
HETATM   11  C   UNK     0     -20.424   2.007   6.333  0.00  0.00     0.018 A 
HETATM   12  C   UNK     0     -19.557   0.812   5.901  0.00  0.00     0.040 A 
HETATM   13 Cl   UNK     0     -20.837   3.077   5.288  0.00  0.00    -0.091 Cl
ENDROOT
BRANCH   3  14
HETATM   14  C   UNK     0     -21.822   2.766   9.948  0.00  0.00    -0.027 A 
HETATM   15  C   UNK     0     -23.318   2.729   9.607  0.00  0.00     0.024 A 
HETATM   16  C   UNK     0     -24.142   4.019   9.586  0.00  0.00     0.004 A 
HETATM   17  C   UNK     0     -23.457   5.362   9.912  0.00  0.00     0.001 A 
HETATM   18  C   UNK     0     -21.956   5.422  10.258  0.00  0.00     0.004 A 
HETATM   19  C   UNK     0     -21.137   4.108  10.274  0.00  0.00     0.024 A 
ENDBRANCH   3  14
TORSDOF 1
ENDMDL
MODEL 7
REMARK VINA RESULT:      -5.0     14.454     17.277
REMARK  1 active torsions:
REMARK  status: ('A' for Active; 'I' for Inactive)
REMARK    1  A    between atoms: C_3  and  C_9 
ROOT
HETATM    1  C   UNK     0      -4.306   5.148 -10.822  0.00  0.00     0.013 A 
HETATM    2  N   UNK     0      -5.428   3.145 -11.867  0.00  0.00    -0.241 NA
HETATM    3  C   UNK     0      -4.443   3.862 -10.943  0.00  0.00     0.071 A 
HETATM    4  N   UNK     0      -5.967   6.544 -12.394  0.00  0.00    -0.223 NA
HETATM    5  C   UNK     0      -4.989   6.391 -11.472  0.00  0.00     0.059 A 
HETATM    6  C   UNK     0      -6.721   5.412 -13.097  0.00  0.00     0.232 A 
HETATM    7  C   UNK     0      -3.196   5.376  -9.780  0.00  0.00     0.062 A 
HETATM    8  C   UNK     0      -6.460   3.834 -12.841  0.00  0.00     0.146 A 
HETATM    9  C   UNK     0      -4.556   7.814 -11.073  0.00  0.00     0.051 A 
HETATM   10  O   UNK     0      -7.798   5.810 -14.112  0.00  0.00    -0.168 OA
HETATM   11  C   UNK     0      -2.769   6.794  -9.386  0.00  0.00     0.018 A 
HETATM   12  C   UNK     0      -3.449   8.013 -10.033  0.00  0.00     0.040 A 
HETATM   13 Cl   UNK     0      -1.649   7.005  -8.334  0.00  0.00    -0.091 Cl
ENDROOT
BRANCH   3  14
HETATM   14  C   UNK     0      -3.530   2.981 -10.079  0.00  0.00    -0.027 A 
HETATM   15  C   UNK     0      -3.921   2.655  -8.632  0.00  0.00     0.024 A 
HETATM   16  C   UNK     0      -3.017   1.777  -7.762  0.00  0.00     0.004 A 
HETATM   17  C   UNK     0      -1.705   1.221  -8.353  0.00  0.00     0.001 A 
HETATM   18  C   UNK     0      -1.293   1.536  -9.804  0.00  0.00     0.004 A 
HETATM   19  C   UNK     0      -2.219   2.425 -10.670  0.00  0.00     0.024 A 
ENDBRANCH   3  14
TORSDOF 1
ENDMDL
MODEL 8
REMARK VINA RESULT:      -5.0     11.231     13.210
REMARK  1 active torsions:
REMARK  status: ('A' for Active; 'I' for Inactive)
REMARK    1  A    between atoms: C_3  and  C_9 
ROOT
HETATM    1  C   UNK     0       3.800  -0.270   5.311  0.00  0.00     0.013 A 
HETATM    2  N   UNK     0       3.133  -1.978   3.580  0.00  0.00    -0.241 NA
HETATM    3  C   UNK     0       3.059  -1.267   4.931  0.00  0.00     0.071 A 
HETATM    4  N   UNK     0       5.572   0.503   3.456  0.00  0.00    -0.223 NA
HETATM    5  C   UNK     0       4.952   0.555   4.657  0.00  0.00     0.059 A 
HETATM    6  C   UNK     0       5.259  -0.483   2.328  0.00  0.00     0.232 A 
HETATM    7  C   UNK     0       3.351   0.093   6.739  0.00  0.00     0.062 A 
HETATM    8  C   UNK     0       4.121  -1.633   2.399  0.00  0.00     0.146 A 
HETATM    9  C   UNK     0       5.621   1.707   5.431  0.00  0.00     0.051 A 
HETATM   10  O   UNK     0       6.087  -0.365   1.043  0.00  0.00    -0.168 OA
HETATM   11  C   UNK     0       4.020   1.240   7.504  0.00  0.00     0.018 A 
HETATM   12  C   UNK     0       5.154   2.047   6.850  0.00  0.00     0.040 A 
HETATM   13 Cl   UNK     0       3.554   1.592   8.942  0.00  0.00    -0.091 Cl
ENDROOT
BRANCH   3  14
HETATM   14  C   UNK     0       2.014  -1.777   5.932  0.00  0.00    -0.027 A 
HETATM   15  C   UNK     0       0.518  -1.590   5.646  0.00  0.00     0.024 A 
HETATM   16  C   UNK     0      -0.532  -2.095   6.638  0.00  0.00     0.004 A 
HETATM   17  C   UNK     0      -0.075  -2.798   7.933  0.00  0.00     0.001 A 
HETATM   18  C   UNK     0       1.423  -2.998   8.241  0.00  0.00     0.004 A 
HETATM   19  C   UNK     0       2.471  -2.480   7.226  0.00  0.00     0.024 A 
ENDBRANCH   3  14
TORSDOF 1
ENDMDL
MODEL 9
REMARK VINA RESULT:      -4.9     12.645     14.272
REMARK  1 active torsions:
REMARK  status: ('A' for Active; 'I' for Inactive)
REMARK    1  A    between atoms: C_3  and  C_9 
ROOT
HETATM    1  C   UNK     0       9.347   2.543  -5.087  0.00  0.00     0.013 A 
HETATM    2  N   UNK     0      11.790   2.129  -5.558  0.00  0.00    -0.241 NA
HETATM    3  C   UNK     0      10.549   2.269  -4.676  0.00  0.00     0.071 A 
HETATM    4  N   UNK     0       9.181   2.866  -7.741  0.00  0.00    -0.223 NA
HETATM    5  C   UNK     0       8.699   2.820  -6.478  0.00  0.00     0.059 A 
HETATM    6  C   UNK     0      10.637   2.634  -8.154  0.00  0.00     0.232 A 
HETATM    7  C   UNK     0       8.452   2.577  -3.835  0.00  0.00     0.062 A 
HETATM    8  C   UNK     0      11.841   2.291  -7.126  0.00  0.00     0.146 A 
HETATM    9  C   UNK     0       7.191   3.120  -6.589  0.00  0.00     0.051 A 
HETATM   10  O   UNK     0      10.968   2.734  -9.647  0.00  0.00    -0.168 OA
HETATM   11  C   UNK     0       6.953   2.876  -3.950  0.00  0.00     0.018 A 
HETATM   12  C   UNK     0       6.323   3.147  -5.327  0.00  0.00     0.040 A 
HETATM   13 Cl   UNK     0       6.066   2.906  -2.678  0.00  0.00    -0.091 Cl
ENDROOT
BRANCH   3  14
HETATM   14  C   UNK     0      10.739   2.067  -3.167  0.00  0.00    -0.027 A 
HETATM   15  C   UNK     0      11.526   3.097  -2.346  0.00  0.00     0.024 A 
HETATM   16  C   UNK     0      11.721   2.905  -0.839  0.00  0.00     0.004 A 
HETATM   17  C   UNK     0      11.118   1.663  -0.150  0.00  0.00     0.001 A 
HETATM   18  C   UNK     0      10.324   0.616  -0.956  0.00  0.00     0.004 A 
HETATM   19  C   UNK     0      10.137   0.826  -2.478  0.00  0.00     0.024 A 
ENDBRANCH   3  14
TORSDOF 1
ENDMDL
MODEL 10
REMARK VINA RESULT:      -4.9     10.907     13.250
REMARK  1 active torsions:
REMARK  status: ('A' for Active; 'I' for Inactive)
REMARK    1  A    between atoms: C_3  and  C_9 
ROOT
HETATM    1  C   UNK     0      -3.822  -8.792   6.093  0.00  0.00     0.013 A 
HETATM    2  N   UNK     0      -5.287  -8.395   8.107  0.00  0.00    -0.241 NA
HETATM    3  C   UNK     0      -3.984  -8.365   7.309  0.00  0.00     0.071 A 
HETATM    4  N   UNK     0      -6.063  -9.787   5.012  0.00  0.00    -0.223 NA
HETATM    5  C   UNK     0      -4.754  -9.444   5.025  0.00  0.00     0.059 A 
HETATM    6  C   UNK     0      -7.051  -9.598   6.166  0.00  0.00     0.232 A 
HETATM    7  C   UNK     0      -2.345  -8.549   5.734  0.00  0.00     0.062 A 
HETATM    8  C   UNK     0      -6.676  -8.948   7.602  0.00  0.00     0.146 A 
HETATM    9  C   UNK     0      -4.199  -9.834   3.642  0.00  0.00     0.051 A 
HETATM   10  O   UNK     0      -8.494 -10.059   5.937  0.00  0.00    -0.168 OA
HETATM   11  C   UNK     0      -1.798  -8.939   4.356  0.00  0.00     0.018 A 
HETATM   12  C   UNK     0      -2.725  -9.581   3.311  0.00  0.00     0.040 A 
HETATM   13 Cl   UNK     0      -0.306  -8.686   4.012  0.00  0.00    -0.091 Cl
ENDROOT
BRANCH   3  14
HETATM   14  C   UNK     0      -2.751  -7.778   8.009  0.00  0.00    -0.027 A 
HETATM   15  C   UNK     0      -1.652  -8.706   8.543  0.00  0.00     0.024 A 
HETATM   16  C   UNK     0      -0.419  -8.130   9.242  0.00  0.00     0.004 A 
HETATM   17  C   UNK     0      -0.287  -6.601   9.408  0.00  0.00     0.001 A 
HETATM   18  C   UNK     0      -1.379  -5.650   8.879  0.00  0.00     0.004 A 
HETATM   19  C   UNK     0      -2.619  -6.250   8.174  0.00  0.00     0.024 A 
ENDBRANCH   3  14
TORSDOF 1
ENDMDL
