MODEL 1
REMARK VINA RESULT:      -4.2      0.000      0.000
REMARK  4 active torsions:
REMARK  status: ('A' for Active; 'I' for Inactive)
REMARK    1  A    between atoms: C_2  and  C_3 
REMARK    2  A    between atoms: C_3  and  C_4 
REMARK    3  A    between atoms: C_4  and  C_6 
REMARK    4  A    between atoms: C_6  and  C_7 
ROOT
HETATM    1  C   UNK     0       5.291  -7.481  -2.289  0.00  0.00     0.032 A 
HETATM    2  C   UNK     0       5.598  -6.100  -2.896  0.00  0.00     0.155 A 
HETATM    3  N   UNK     0       4.695  -5.527  -4.004  0.00  0.00    -0.156 NA
HETATM    4  C   UNK     0       4.081  -8.291  -2.790  0.00  0.00     0.069 A 
HETATM    5  C   UNK     0       3.177  -7.718  -3.898  0.00  0.00     0.295 A 
HETATM    6  O   UNK     0       1.966  -8.527  -4.400  0.00  0.00    -0.188 OA
HETATM    7  O   UNK     0       3.484  -6.336  -4.505  0.00  0.00    -0.210 OA
ENDROOT
BRANCH   1   8
HETATM    8  C   UNK     0       6.195  -8.054  -1.181  0.00  0.00     0.002 C 
BRANCH   8   9
HETATM    9  C   UNK     0       6.047  -7.555   0.268  0.00  0.00     0.000 C 
HETATM   10  C   UNK     0       7.149  -7.853   1.302  0.00  0.00     0.000 C 
BRANCH   9  11
HETATM   11  C   UNK     0       4.796  -6.759   0.684  0.00  0.00     0.000 C 
BRANCH  11  12
HETATM   12  C   UNK     0       4.794  -5.222   0.584  0.00  0.00     0.000 C 
HETATM   13  C   UNK     0       5.804  -4.395   1.403  0.00  0.00     0.000 C 
ENDBRANCH  11  12
ENDBRANCH   9  11
ENDBRANCH   8   9
ENDBRANCH   1   8
TORSDOF 4
ENDMDL
MODEL 2
REMARK VINA RESULT:      -4.2      2.937      4.197
REMARK  4 active torsions:
REMARK  status: ('A' for Active; 'I' for Inactive)
REMARK    1  A    between atoms: C_2  and  C_3 
REMARK    2  A    between atoms: C_3  and  C_4 
REMARK    3  A    between atoms: C_4  and  C_6 
REMARK    4  A    between atoms: C_6  and  C_7 
ROOT
HETATM    1  C   UNK     0       5.296  -9.053  -1.500  0.00  0.00     0.032 A 
HETATM    2  C   UNK     0       6.069 -10.215  -0.850  0.00  0.00     0.155 A 
HETATM    3  N   UNK     0       5.383 -11.579  -0.648  0.00  0.00    -0.156 NA
HETATM    4  C   UNK     0       3.837  -9.254  -1.948  0.00  0.00     0.069 A 
HETATM    5  C   UNK     0       3.150 -10.618  -1.746  0.00  0.00     0.295 A 
HETATM    6  O   UNK     0       1.690 -10.819  -2.194  0.00  0.00    -0.188 OA
HETATM    7  O   UNK     0       3.923 -11.780  -1.096  0.00  0.00    -0.210 OA
ENDROOT
BRANCH   1   8
HETATM    8  C   UNK     0       5.982  -7.689  -1.702  0.00  0.00     0.002 C 
BRANCH   8   9
HETATM    9  C   UNK     0       5.254  -6.393  -1.301  0.00  0.00     0.000 C 
HETATM   10  C   UNK     0       5.036  -6.061   0.187  0.00  0.00     0.000 C 
BRANCH   9  11
HETATM   11  C   UNK     0       4.742  -5.430  -2.387  0.00  0.00     0.000 C 
BRANCH  11  12
HETATM   12  C   UNK     0       4.811  -5.836  -3.871  0.00  0.00     0.000 C 
HETATM   13  C   UNK     0       3.657  -6.635  -4.506  0.00  0.00     0.000 C 
ENDBRANCH  11  12
ENDBRANCH   9  11
ENDBRANCH   8   9
ENDBRANCH   1   8
TORSDOF 4
ENDMDL
MODEL 3
REMARK VINA RESULT:      -4.1     14.232     15.847
REMARK  4 active torsions:
REMARK  status: ('A' for Active; 'I' for Inactive)
REMARK    1  A    between atoms: C_2  and  C_3 
REMARK    2  A    between atoms: C_3  and  C_4 
REMARK    3  A    between atoms: C_4  and  C_6 
REMARK    4  A    between atoms: C_6  and  C_7 
ROOT
HETATM    1  C   UNK     0      -4.160   3.431  -9.657  0.00  0.00     0.032 A 
HETATM    2  C   UNK     0      -3.319   4.707  -9.842  0.00  0.00     0.155 A 
HETATM    3  N   UNK     0      -3.874   5.883 -10.666  0.00  0.00    -0.156 NA
HETATM    4  C   UNK     0      -5.556   3.329 -10.297  0.00  0.00     0.069 A 
HETATM    5  C   UNK     0      -6.112   4.505 -11.121  0.00  0.00     0.295 A 
HETATM    6  O   UNK     0      -7.510   4.405 -11.762  0.00  0.00    -0.188 OA
HETATM    7  O   UNK     0      -5.271   5.782 -11.306  0.00  0.00    -0.210 OA
ENDROOT
BRANCH   1   8
HETATM    8  C   UNK     0      -3.604   2.255  -8.832  0.00  0.00     0.002 C 
BRANCH   8   9
HETATM    9  C   UNK     0      -2.502   1.354  -9.421  0.00  0.00     0.000 C 
HETATM   10  C   UNK     0      -2.603   0.866 -10.878  0.00  0.00     0.000 C 
BRANCH   9  11
HETATM   11  C   UNK     0      -1.300   0.941  -8.552  0.00  0.00     0.000 C 
BRANCH  11  12
HETATM   12  C   UNK     0       0.076   1.596  -8.780  0.00  0.00     0.000 C 
HETATM   13  C   UNK     0       0.210   3.130  -8.771  0.00  0.00     0.000 C 
ENDBRANCH  11  12
ENDBRANCH   9  11
ENDBRANCH   8   9
ENDBRANCH   1   8
TORSDOF 4
ENDMDL
MODEL 4
REMARK VINA RESULT:      -3.9     18.042     19.447
REMARK  4 active torsions:
REMARK  status: ('A' for Active; 'I' for Inactive)
REMARK    1  A    between atoms: C_2  and  C_3 
REMARK    2  A    between atoms: C_3  and  C_4 
REMARK    3  A    between atoms: C_4  and  C_6 
REMARK    4  A    between atoms: C_6  and  C_7 
ROOT
HETATM    1  C   UNK     0      -5.179   6.108 -11.533  0.00  0.00     0.032 A 
HETATM    2  C   UNK     0      -6.484   6.294 -12.330  0.00  0.00     0.155 A 
HETATM    3  N   UNK     0      -7.501   5.142 -12.422  0.00  0.00    -0.156 NA
HETATM    4  C   UNK     0      -4.892   4.770 -10.829  0.00  0.00     0.069 A 
HETATM    5  C   UNK     0      -5.909   3.617 -10.920  0.00  0.00     0.295 A 
HETATM    6  O   UNK     0      -5.622   2.278 -10.216  0.00  0.00    -0.188 OA
HETATM    7  O   UNK     0      -7.214   3.803 -11.717  0.00  0.00    -0.210 OA
ENDROOT
BRANCH   1   8
HETATM    8  C   UNK     0      -4.162   7.261 -11.441  0.00  0.00     0.002 C 
BRANCH   8   9
HETATM    9  C   UNK     0      -3.884   7.937 -10.085  0.00  0.00     0.000 C 
HETATM   10  C   UNK     0      -2.659   7.517  -9.252  0.00  0.00     0.000 C 
BRANCH   9  11
HETATM   11  C   UNK     0      -4.832   9.032  -9.563  0.00  0.00     0.000 C 
BRANCH  11  12
HETATM   12  C   UNK     0      -5.541   9.974 -10.555  0.00  0.00     0.000 C 
HETATM   13  C   UNK     0      -7.005   9.710 -10.954  0.00  0.00     0.000 C 
ENDBRANCH  11  12
ENDBRANCH   9  11
ENDBRANCH   8   9
ENDBRANCH   1   8
TORSDOF 4
ENDMDL
MODEL 5
REMARK VINA RESULT:      -3.9      3.890      5.869
REMARK  4 active torsions:
REMARK  status: ('A' for Active; 'I' for Inactive)
REMARK    1  A    between atoms: C_2  and  C_3 
REMARK    2  A    between atoms: C_3  and  C_4 
REMARK    3  A    between atoms: C_4  and  C_6 
REMARK    4  A    between atoms: C_6  and  C_7 
ROOT
HETATM    1  C   UNK     0       0.282  -7.301  -5.315  0.00  0.00     0.032 A 
HETATM    2  C   UNK     0      -0.972  -6.610  -5.883  0.00  0.00     0.155 A 
HETATM    3  N   UNK     0      -2.373  -7.078  -5.449  0.00  0.00    -0.156 NA
HETATM    4  C   UNK     0       0.135  -8.461  -4.314  0.00  0.00     0.069 A 
HETATM    5  C   UNK     0      -1.267  -8.930  -3.879  0.00  0.00     0.295 A 
HETATM    6  O   UNK     0      -1.414 -10.090  -2.877  0.00  0.00    -0.188 OA
HETATM    7  O   UNK     0      -2.520  -8.239  -4.447  0.00  0.00    -0.210 OA
ENDROOT
BRANCH   1   8
HETATM    8  C   UNK     0       1.683  -6.832  -5.750  0.00  0.00     0.002 C 
BRANCH   8   9
HETATM    9  C   UNK     0       2.932  -7.606  -5.288  0.00  0.00     0.000 C 
HETATM   10  C   UNK     0       3.544  -8.691  -6.193  0.00  0.00     0.000 C 
BRANCH   9  11
HETATM   11  C   UNK     0       3.569  -7.294  -3.922  0.00  0.00     0.000 C 
BRANCH  11  12
HETATM   12  C   UNK     0       4.373  -5.995  -3.725  0.00  0.00     0.000 C 
HETATM   13  C   UNK     0       4.920  -5.631  -2.332  0.00  0.00     0.000 C 
ENDBRANCH  11  12
ENDBRANCH   9  11
ENDBRANCH   8   9
ENDBRANCH   1   8
TORSDOF 4
ENDMDL
MODEL 6
REMARK VINA RESULT:      -3.8     13.119     14.241
REMARK  4 active torsions:
REMARK  status: ('A' for Active; 'I' for Inactive)
REMARK    1  A    between atoms: C_2  and  C_3 
REMARK    2  A    between atoms: C_3  and  C_4 
REMARK    3  A    between atoms: C_4  and  C_6 
REMARK    4  A    between atoms: C_6  and  C_7 
ROOT
HETATM    1  C   UNK     0      -5.499  -8.750   6.252  0.00  0.00     0.032 A 
HETATM    2  C   UNK     0      -4.393  -7.761   6.666  0.00  0.00     0.155 A 
HETATM    3  N   UNK     0      -3.115  -7.636   5.818  0.00  0.00    -0.156 NA
HETATM    4  C   UNK     0      -5.326  -9.614   4.990  0.00  0.00     0.069 A 
HETATM    5  C   UNK     0      -4.046  -9.489   4.141  0.00  0.00     0.295 A 
HETATM    6  O   UNK     0      -3.873 -10.354   2.878  0.00  0.00    -0.188 OA
HETATM    7  O   UNK     0      -2.941  -8.500   4.555  0.00  0.00    -0.210 OA
ENDROOT
BRANCH   1   8
HETATM    8  C   UNK     0      -6.778  -8.874   7.101  0.00  0.00     0.002 C 
BRANCH   8   9
HETATM    9  C   UNK     0      -7.757 -10.037   6.854  0.00  0.00     0.000 C 
HETATM   10  C   UNK     0      -7.659 -11.319   7.701  0.00  0.00     0.000 C 
BRANCH   9  11
HETATM   11  C   UNK     0      -8.832  -9.918   5.759  0.00  0.00     0.000 C 
BRANCH  11  12
HETATM   12  C   UNK     0     -10.270 -10.395   6.036  0.00  0.00     0.000 C 
HETATM   13  C   UNK     0     -10.690 -11.831   5.669  0.00  0.00     0.000 C 
ENDBRANCH  11  12
ENDBRANCH   9  11
ENDBRANCH   8   9
ENDBRANCH   1   8
TORSDOF 4
ENDMDL
MODEL 7
REMARK VINA RESULT:      -3.8      4.157      5.198
REMARK  4 active torsions:
REMARK  status: ('A' for Active; 'I' for Inactive)
REMARK    1  A    between atoms: C_2  and  C_3 
REMARK    2  A    between atoms: C_3  and  C_4 
REMARK    3  A    between atoms: C_4  and  C_6 
REMARK    4  A    between atoms: C_6  and  C_7 
ROOT
HETATM    1  C   UNK     0       4.868  -9.566  -0.668  0.00  0.00     0.032 A 
HETATM    2  C   UNK     0       3.779 -10.020   0.321  0.00  0.00     0.155 A 
HETATM    3  N   UNK     0       3.978 -11.302   1.150  0.00  0.00    -0.156 NA
HETATM    4  C   UNK     0       6.156 -10.394  -0.828  0.00  0.00     0.069 A 
HETATM    5  C   UNK     0       6.356 -11.676   0.001  0.00  0.00     0.295 A 
HETATM    6  O   UNK     0       7.644 -12.505  -0.159  0.00  0.00    -0.188 OA
HETATM    7  O   UNK     0       5.266 -12.130   0.990  0.00  0.00    -0.210 OA
ENDROOT
BRANCH   1   8
HETATM    8  C   UNK     0       4.669  -8.283  -1.497  0.00  0.00     0.002 C 
BRANCH   8   9
HETATM    9  C   UNK     0       4.986  -6.909  -0.879  0.00  0.00     0.000 C 
HETATM   10  C   UNK     0       5.252  -6.788   0.633  0.00  0.00     0.000 C 
BRANCH   9  11
HETATM   11  C   UNK     0       5.037  -5.656  -1.772  0.00  0.00     0.000 C 
BRANCH  11  12
HETATM   12  C   UNK     0       4.575  -5.737  -3.239  0.00  0.00     0.000 C 
HETATM   13  C   UNK     0       5.616  -5.804  -4.372  0.00  0.00     0.000 C 
ENDBRANCH  11  12
ENDBRANCH   9  11
ENDBRANCH   8   9
ENDBRANCH   1   8
TORSDOF 4
ENDMDL
MODEL 8
REMARK VINA RESULT:      -3.8      3.280      6.307
REMARK  4 active torsions:
REMARK  status: ('A' for Active; 'I' for Inactive)
REMARK    1  A    between atoms: C_2  and  C_3 
REMARK    2  A    between atoms: C_3  and  C_4 
REMARK    3  A    between atoms: C_4  and  C_6 
REMARK    4  A    between atoms: C_6  and  C_7 
ROOT
HETATM    1  C   UNK     0       3.855  -7.827  -3.447  0.00  0.00     0.032 A 
HETATM    2  C   UNK     0       2.999  -9.085  -3.207  0.00  0.00     0.155 A 
HETATM    3  N   UNK     0       3.399 -10.091  -2.113  0.00  0.00    -0.156 NA
HETATM    4  C   UNK     0       5.111  -7.576  -2.592  0.00  0.00     0.069 A 
HETATM    5  C   UNK     0       5.511  -8.583  -1.497  0.00  0.00     0.295 A 
HETATM    6  O   UNK     0       6.767  -8.332  -0.642  0.00  0.00    -0.188 OA
HETATM    7  O   UNK     0       4.655  -9.840  -1.258  0.00  0.00    -0.210 OA
ENDROOT
BRANCH   1   8
HETATM    8  C   UNK     0       3.455  -6.821  -4.542  0.00  0.00     0.002 C 
BRANCH   8   9
HETATM    9  C   UNK     0       2.533  -7.262  -5.694  0.00  0.00     0.000 C 
HETATM   10  C   UNK     0       1.062  -6.806  -5.721  0.00  0.00     0.000 C 
BRANCH   9  11
HETATM   11  C   UNK     0       3.082  -8.158  -6.819  0.00  0.00     0.000 C 
BRANCH  11  12
HETATM   12  C   UNK     0       4.601  -8.361  -6.970  0.00  0.00     0.000 C 
HETATM   13  C   UNK     0       5.143  -9.443  -7.922  0.00  0.00     0.000 C 
ENDBRANCH  11  12
ENDBRANCH   9  11
ENDBRANCH   8   9
ENDBRANCH   1   8
TORSDOF 4
ENDMDL
MODEL 9
REMARK VINA RESULT:      -3.6      3.530      4.324
REMARK  4 active torsions:
REMARK  status: ('A' for Active; 'I' for Inactive)
REMARK    1  A    between atoms: C_2  and  C_3 
REMARK    2  A    between atoms: C_3  and  C_4 
REMARK    3  A    between atoms: C_4  and  C_6 
REMARK    4  A    between atoms: C_6  and  C_7 
ROOT
HETATM    1  C   UNK     0       5.674  -8.839  -1.001  0.00  0.00     0.032 A 
HETATM    2  C   UNK     0       6.847  -9.122  -0.043  0.00  0.00     0.155 A 
HETATM    3  N   UNK     0       6.719 -10.221   1.027  0.00  0.00    -0.156 NA
HETATM    4  C   UNK     0       4.374  -9.656  -0.888  0.00  0.00     0.069 A 
HETATM    5  C   UNK     0       4.246 -10.755   0.183  0.00  0.00     0.295 A 
HETATM    6  O   UNK     0       2.945 -11.572   0.296  0.00  0.00    -0.188 OA
HETATM    7  O   UNK     0       5.418 -11.038   1.140  0.00  0.00    -0.210 OA
ENDROOT
BRANCH   1   8
HETATM    8  C   UNK     0       5.803  -7.740  -2.072  0.00  0.00     0.002 C 
BRANCH   8   9
HETATM    9  C   UNK     0       5.339  -6.304  -1.761  0.00  0.00     0.000 C 
HETATM   10  C   UNK     0       4.674  -5.455  -2.860  0.00  0.00     0.000 C 
BRANCH   9  11
HETATM   11  C   UNK     0       5.542  -5.718  -0.352  0.00  0.00     0.000 C 
BRANCH  11  12
HETATM   12  C   UNK     0       4.452  -5.899   0.721  0.00  0.00     0.000 C 
HETATM   13  C   UNK     0       4.749  -6.719   1.991  0.00  0.00     0.000 C 
ENDBRANCH  11  12
ENDBRANCH   9  11
ENDBRANCH   8   9
ENDBRANCH   1   8
TORSDOF 4
ENDMDL
MODEL 10
REMARK VINA RESULT:      -3.5      3.963      5.013
REMARK  4 active torsions:
REMARK  status: ('A' for Active; 'I' for Inactive)
REMARK    1  A    between atoms: C_2  and  C_3 
REMARK    2  A    between atoms: C_3  and  C_4 
REMARK    3  A    between atoms: C_4  and  C_6 
REMARK    4  A    between atoms: C_6  and  C_7 
ROOT
HETATM    1  C   UNK     0       3.283  -9.889  -1.055  0.00  0.00     0.032 A 
HETATM    2  C   UNK     0       2.116 -10.695  -1.654  0.00  0.00     0.155 A 
HETATM    3  N   UNK     0       1.092 -11.373  -0.725  0.00  0.00    -0.156 NA
HETATM    4  C   UNK     0       3.427  -9.760   0.472  0.00  0.00     0.069 A 
HETATM    5  C   UNK     0       2.403 -10.438   1.402  0.00  0.00     0.295 A 
HETATM    6  O   UNK     0       2.546 -10.310   2.930  0.00  0.00    -0.188 OA
HETATM    7  O   UNK     0       1.235 -11.245   0.803  0.00  0.00    -0.210 OA
ENDROOT
BRANCH   1   8
HETATM    8  C   UNK     0       4.307  -9.211  -1.985  0.00  0.00     0.002 C 
BRANCH   8   9
HETATM    9  C   UNK     0       5.299  -8.178  -1.416  0.00  0.00     0.000 C 
HETATM   10  C   UNK     0       6.710  -8.621  -0.988  0.00  0.00     0.000 C 
BRANCH   9  11
HETATM   11  C   UNK     0       4.879  -6.704  -1.275  0.00  0.00     0.000 C 
BRANCH  11  12
HETATM   12  C   UNK     0       5.244  -5.691  -2.375  0.00  0.00     0.000 C 
HETATM   13  C   UNK     0       5.555  -6.181  -3.802  0.00  0.00     0.000 C 
ENDBRANCH  11  12
ENDBRANCH   9  11
ENDBRANCH   8   9
ENDBRANCH   1   8
TORSDOF 4
ENDMDL
