MODEL 1
REMARK VINA RESULT:      -4.3      0.000      0.000
REMARK  2 active torsions:
REMARK  status: ('A' for Active; 'I' for Inactive)
REMARK    1  A    between atoms: C_1  and  C_2 
REMARK    2  A    between atoms: C_1  and  C_5 
ROOT
HETATM    1  C   UNK     0       4.911  -6.380   0.101  0.00  0.00     0.035 A 
HETATM    2  C   UNK     0       4.729  -7.910   0.098  0.00  0.00     0.120 A 
HETATM    3  N   UNK     0       4.828  -8.694  -1.223  0.00  0.00    -0.296 NA
HETATM    4  C   UNK     0       5.191  -5.636  -1.216  0.00  0.00     0.004 A 
HETATM    5  C   UNK     0       5.290  -6.419  -2.538  0.00  0.00     0.024 A 
HETATM    6  C   UNK     0       5.109  -7.949  -2.542  0.00  0.00     0.120 A 
HETATM    7  C   UNK     0       5.571  -5.675  -3.856  0.00  0.00     0.002 C 
ENDROOT
BRANCH   1   8
HETATM    8  C   UNK     0       4.812  -5.596   1.423  0.00  0.00     0.100 C 
BRANCH   8   9
HETATM    9  C   UNK     0       4.683  -4.008   1.399  0.00  0.00     0.185 C 
HETATM   10  O   UNK     0       3.334  -3.461   0.965  0.00  0.00    -0.647 OA
HETATM   11  O   UNK     0       5.849  -3.117   1.790  0.00  0.00    -0.647 OA
ENDBRANCH   8   9
ENDBRANCH   1   8
TORSDOF 2
ENDMDL
MODEL 2
REMARK VINA RESULT:      -4.1     15.594     16.932
REMARK  2 active torsions:
REMARK  status: ('A' for Active; 'I' for Inactive)
REMARK    1  A    between atoms: C_1  and  C_2 
REMARK    2  A    between atoms: C_1  and  C_5 
ROOT
HETATM    1  C   UNK     0      -4.292   3.759  -9.925  0.00  0.00     0.035 A 
HETATM    2  C   UNK     0      -3.327   4.943  -9.723  0.00  0.00     0.120 A 
HETATM    3  N   UNK     0      -2.586   5.112  -8.384  0.00  0.00    -0.296 NA
HETATM    4  C   UNK     0      -4.515   2.745  -8.788  0.00  0.00     0.004 A 
HETATM    5  C   UNK     0      -3.774   2.914  -7.449  0.00  0.00     0.024 A 
HETATM    6  C   UNK     0      -2.809   4.097  -7.247  0.00  0.00     0.120 A 
HETATM    7  C   UNK     0      -3.996   1.900  -6.312  0.00  0.00     0.002 C 
ENDROOT
BRANCH   1   8
HETATM    8  C   UNK     0      -5.033   3.590 -11.264  0.00  0.00     0.100 C 
BRANCH   8   9
HETATM    9  C   UNK     0      -6.404   4.361 -11.518  0.00  0.00     0.185 C 
HETATM   10  O   UNK     0      -7.536   3.526 -12.093  0.00  0.00    -0.647 OA
HETATM   11  O   UNK     0      -6.548   5.838 -11.199  0.00  0.00    -0.647 OA
ENDBRANCH   8   9
ENDBRANCH   1   8
TORSDOF 2
ENDMDL
MODEL 3
REMARK VINA RESULT:      -4.1      2.347      3.301
REMARK  2 active torsions:
REMARK  status: ('A' for Active; 'I' for Inactive)
REMARK    1  A    between atoms: C_1  and  C_2 
REMARK    2  A    between atoms: C_1  and  C_5 
ROOT
HETATM    1  C   UNK     0       5.060  -7.081  -1.850  0.00  0.00     0.035 A 
HETATM    2  C   UNK     0       5.215  -5.736  -2.585  0.00  0.00     0.120 A 
HETATM    3  N   UNK     0       4.500  -5.505  -3.929  0.00  0.00    -0.296 NA
HETATM    4  C   UNK     0       4.189  -8.194  -2.460  0.00  0.00     0.004 A 
HETATM    5  C   UNK     0       3.474  -7.965  -3.804  0.00  0.00     0.024 A 
HETATM    6  C   UNK     0       3.629  -6.620  -4.538  0.00  0.00     0.120 A 
HETATM    7  C   UNK     0       2.603  -9.078  -4.413  0.00  0.00     0.002 C 
ENDROOT
BRANCH   1   8
HETATM    8  C   UNK     0       5.776  -7.311  -0.506  0.00  0.00     0.100 C 
BRANCH   8   9
HETATM    9  C   UNK     0       5.449  -6.374   0.741  0.00  0.00     0.185 C 
HETATM   10  O   UNK     0       6.241  -5.080   0.821  0.00  0.00    -0.647 OA
HETATM   11  O   UNK     0       4.406  -6.769   1.771  0.00  0.00    -0.647 OA
ENDBRANCH   8   9
ENDBRANCH   1   8
TORSDOF 2
ENDMDL
MODEL 4
REMARK VINA RESULT:      -3.9      3.067      4.429
REMARK  2 active torsions:
REMARK  status: ('A' for Active; 'I' for Inactive)
REMARK    1  A    between atoms: C_1  and  C_2 
REMARK    2  A    between atoms: C_1  and  C_5 
ROOT
HETATM    1  C   UNK     0       5.371  -7.356  -1.454  0.00  0.00     0.035 A 
HETATM    2  C   UNK     0       6.270  -8.339  -0.680  0.00  0.00     0.120 A 
HETATM    3  N   UNK     0       6.798  -7.964   0.717  0.00  0.00    -0.296 NA
HETATM    4  C   UNK     0       5.002  -5.998  -0.831  0.00  0.00     0.004 A 
HETATM    5  C   UNK     0       5.530  -5.621   0.566  0.00  0.00     0.024 A 
HETATM    6  C   UNK     0       6.429  -6.604   1.340  0.00  0.00     0.120 A 
HETATM    7  C   UNK     0       5.161  -4.263   1.189  0.00  0.00     0.002 C 
ENDROOT
BRANCH   1   8
HETATM    8  C   UNK     0       4.843  -7.733  -2.851  0.00  0.00     0.100 C 
BRANCH   8   9
HETATM    9  C   UNK     0       4.719  -6.617  -3.982  0.00  0.00     0.185 C 
HETATM   10  O   UNK     0       3.349  -6.476  -4.623  0.00  0.00    -0.647 OA
HETATM   11  O   UNK     0       5.908  -5.761  -4.378  0.00  0.00    -0.647 OA
ENDBRANCH   8   9
ENDBRANCH   1   8
TORSDOF 2
ENDMDL
MODEL 5
REMARK VINA RESULT:      -3.9     11.102     12.374
REMARK  2 active torsions:
REMARK  status: ('A' for Active; 'I' for Inactive)
REMARK    1  A    between atoms: C_1  and  C_2 
REMARK    2  A    between atoms: C_1  and  C_5 
ROOT
HETATM    1  C   UNK     0      -4.714  -9.329   4.681  0.00  0.00     0.035 A 
HETATM    2  C   UNK     0      -4.272  -8.219   5.654  0.00  0.00     0.120 A 
HETATM    3  N   UNK     0      -5.171  -7.834   6.843  0.00  0.00    -0.296 NA
HETATM    4  C   UNK     0      -6.055 -10.053   4.898  0.00  0.00     0.004 A 
HETATM    5  C   UNK     0      -6.955  -9.668   6.087  0.00  0.00     0.024 A 
HETATM    6  C   UNK     0      -6.513  -8.559   7.060  0.00  0.00     0.120 A 
HETATM    7  C   UNK     0      -8.296 -10.392   6.303  0.00  0.00     0.002 C 
ENDROOT
BRANCH   1   8
HETATM    8  C   UNK     0      -3.814  -9.714   3.492  0.00  0.00     0.100 C 
BRANCH   8   9
HETATM    9  C   UNK     0      -2.667  -8.719   3.008  0.00  0.00     0.185 C 
HETATM   10  O   UNK     0      -2.979  -7.907   1.762  0.00  0.00    -0.647 OA
HETATM   11  O   UNK     0      -1.352  -8.607   3.759  0.00  0.00    -0.647 OA
ENDBRANCH   8   9
ENDBRANCH   1   8
TORSDOF 2
ENDMDL
MODEL 6
REMARK VINA RESULT:      -3.9     22.603     24.804
REMARK  2 active torsions:
REMARK  status: ('A' for Active; 'I' for Inactive)
REMARK    1  A    between atoms: C_1  and  C_2 
REMARK    2  A    between atoms: C_1  and  C_5 
ROOT
HETATM    1  C   UNK     0     -10.633   6.810  12.512  0.00  0.00     0.035 A 
HETATM    2  C   UNK     0      -9.369   7.510  13.047  0.00  0.00     0.120 A 
HETATM    3  N   UNK     0      -9.489   8.586  14.141  0.00  0.00    -0.296 NA
HETATM    4  C   UNK     0     -12.016   7.187  13.072  0.00  0.00     0.004 A 
HETATM    5  C   UNK     0     -12.137   8.264  14.166  0.00  0.00     0.024 A 
HETATM    6  C   UNK     0     -10.873   8.964  14.701  0.00  0.00     0.120 A 
HETATM    7  C   UNK     0     -13.521   8.641  14.726  0.00  0.00     0.002 C 
ENDROOT
BRANCH   1   8
HETATM    8  C   UNK     0     -10.511   5.733  11.418  0.00  0.00     0.100 C 
BRANCH   8   9
HETATM    9  C   UNK     0     -10.360   4.200  11.823  0.00  0.00     0.185 C 
HETATM   10  O   UNK     0     -10.309   3.912  13.315  0.00  0.00    -0.647 OA
HETATM   11  O   UNK     0     -10.274   3.111  10.769  0.00  0.00    -0.647 OA
ENDBRANCH   8   9
ENDBRANCH   1   8
TORSDOF 2
ENDMDL
MODEL 7
REMARK VINA RESULT:      -3.8      3.800      4.903
REMARK  2 active torsions:
REMARK  status: ('A' for Active; 'I' for Inactive)
REMARK    1  A    between atoms: C_1  and  C_2 
REMARK    2  A    between atoms: C_1  and  C_5 
ROOT
HETATM    1  C   UNK     0       4.435  -8.790  -1.414  0.00  0.00     0.035 A 
HETATM    2  C   UNK     0       4.631  -8.190  -0.009  0.00  0.00     0.120 A 
HETATM    3  N   UNK     0       5.082  -6.727   0.148  0.00  0.00    -0.296 NA
HETATM    4  C   UNK     0       4.690  -7.926  -2.662  0.00  0.00     0.004 A 
HETATM    5  C   UNK     0       5.142  -6.462  -2.506  0.00  0.00     0.024 A 
HETATM    6  C   UNK     0       5.338  -5.862  -1.101  0.00  0.00     0.120 A 
HETATM    7  C   UNK     0       5.397  -5.598  -3.754  0.00  0.00     0.002 C 
ENDROOT
BRANCH   1   8
HETATM    8  C   UNK     0       3.983 -10.254  -1.570  0.00  0.00     0.100 C 
BRANCH   8   9
HETATM    9  C   UNK     0       3.198 -10.976  -0.386  0.00  0.00     0.185 C 
HETATM   10  O   UNK     0       4.010 -11.957   0.444  0.00  0.00    -0.647 OA
HETATM   11  O   UNK     0       1.732 -10.685  -0.121  0.00  0.00    -0.647 OA
ENDBRANCH   8   9
ENDBRANCH   1   8
TORSDOF 2
ENDMDL
MODEL 8
REMARK VINA RESULT:      -3.7     13.317     14.585
REMARK  2 active torsions:
REMARK  status: ('A' for Active; 'I' for Inactive)
REMARK    1  A    between atoms: C_1  and  C_2 
REMARK    2  A    between atoms: C_1  and  C_5 
ROOT
HETATM    1  C   UNK     0      11.616 -17.856   0.244  0.00  0.00     0.035 A 
HETATM    2  C   UNK     0      10.819 -16.544   0.119  0.00  0.00     0.120 A 
HETATM    3  N   UNK     0       9.281 -16.579   0.056  0.00  0.00    -0.296 NA
HETATM    4  C   UNK     0      10.875 -19.203   0.306  0.00  0.00     0.004 A 
HETATM    5  C   UNK     0       9.337 -19.240   0.243  0.00  0.00     0.024 A 
HETATM    6  C   UNK     0       8.539 -17.928   0.118  0.00  0.00     0.120 A 
HETATM    7  C   UNK     0       8.595 -20.588   0.305  0.00  0.00     0.002 C 
ENDROOT
BRANCH   1   8
HETATM    8  C   UNK     0      13.155 -17.819   0.308  0.00  0.00     0.100 C 
BRANCH   8   9
HETATM    9  C   UNK     0      13.916 -18.468   1.548  0.00  0.00     0.185 C 
HETATM   10  O   UNK     0      15.233 -19.155   1.229  0.00  0.00    -0.647 OA
HETATM   11  O   UNK     0      13.343 -18.392   2.952  0.00  0.00    -0.647 OA
ENDBRANCH   8   9
ENDBRANCH   1   8
TORSDOF 2
ENDMDL
MODEL 9
REMARK VINA RESULT:      -3.5      9.341     10.256
REMARK  2 active torsions:
REMARK  status: ('A' for Active; 'I' for Inactive)
REMARK    1  A    between atoms: C_1  and  C_2 
REMARK    2  A    between atoms: C_1  and  C_5 
ROOT
HETATM    1  C   UNK     0      -3.311  -7.358  -5.387  0.00  0.00     0.035 A 
HETATM    2  C   UNK     0      -3.648  -8.457  -6.412  0.00  0.00     0.120 A 
HETATM    3  N   UNK     0      -4.672  -9.552  -6.059  0.00  0.00    -0.296 NA
HETATM    4  C   UNK     0      -3.998  -7.353  -4.010  0.00  0.00     0.004 A 
HETATM    5  C   UNK     0      -5.023  -8.448  -3.656  0.00  0.00     0.024 A 
HETATM    6  C   UNK     0      -5.360  -9.547  -4.681  0.00  0.00     0.120 A 
HETATM    7  C   UNK     0      -5.710  -8.443  -2.278  0.00  0.00     0.002 C 
ENDROOT
BRANCH   1   8
HETATM    8  C   UNK     0      -2.287  -6.263  -5.741  0.00  0.00     0.100 C 
BRANCH   8   9
HETATM    9  C   UNK     0      -0.738  -6.625  -5.839  0.00  0.00     0.185 C 
HETATM   10  O   UNK     0       0.009  -6.017  -7.015  0.00  0.00    -0.647 OA
HETATM   11  O   UNK     0      -0.072  -7.521  -4.811  0.00  0.00    -0.647 OA
ENDBRANCH   8   9
ENDBRANCH   1   8
TORSDOF 2
ENDMDL
MODEL 10
REMARK VINA RESULT:      -3.5     26.232     27.443
REMARK  2 active torsions:
REMARK  status: ('A' for Active; 'I' for Inactive)
REMARK    1  A    between atoms: C_1  and  C_2 
REMARK    2  A    between atoms: C_1  and  C_5 
ROOT
HETATM    1  C   UNK     0     -20.220  -1.514   8.663  0.00  0.00     0.035 A 
HETATM    2  C   UNK     0     -19.013  -1.339   7.723  0.00  0.00     0.120 A 
HETATM    3  N   UNK     0     -19.049  -0.274   6.612  0.00  0.00    -0.296 NA
HETATM    4  C   UNK     0     -21.464  -0.623   8.491  0.00  0.00     0.004 A 
HETATM    5  C   UNK     0     -21.501   0.443   7.380  0.00  0.00     0.024 A 
HETATM    6  C   UNK     0     -20.293   0.618   6.440  0.00  0.00     0.120 A 
HETATM    7  C   UNK     0     -22.745   1.334   7.209  0.00  0.00     0.002 C 
ENDROOT
BRANCH   1   8
HETATM    8  C   UNK     0     -20.183  -2.580   9.773  0.00  0.00     0.100 C 
BRANCH   8   9
HETATM    9  C   UNK     0     -19.398  -2.290  11.129  0.00  0.00     0.185 C 
HETATM   10  O   UNK     0     -18.580  -3.447  11.678  0.00  0.00    -0.647 OA
HETATM   11  O   UNK     0     -19.475  -0.937  11.811  0.00  0.00    -0.647 OA
ENDBRANCH   8   9
ENDBRANCH   1   8
TORSDOF 2
ENDMDL
