MODEL 1
REMARK VINA RESULT:      -9.0      0.000      0.000
REMARK  3 active torsions:
REMARK  status: ('A' for Active; 'I' for Inactive)
REMARK    1  A    between atoms: C_16  and  C_21 
REMARK    2  A    between atoms: C_24  and  O_62 
REMARK    3  A    between atoms: C_34  and  O_35 
ROOT
HETATM    1  C   UNK     0       5.285  -1.112 -15.035  0.00  0.00     0.018 A 
HETATM    2  C   UNK     0       5.183  -2.493 -14.361  0.00  0.00     0.166 A 
HETATM    3  C   UNK     0       6.411  -0.831 -16.047  0.00  0.00     0.004 A 
HETATM    4  N   UNK     0       6.208  -3.592 -14.699  0.00  0.00    -0.347 N 
HETATM    5  C   UNK     0       7.435  -1.930 -16.385  0.00  0.00     0.024 A 
HETATM    6  C   UNK     0       7.333  -3.311 -15.711  0.00  0.00     0.099 A 
HETATM    7  C   UNK     0       4.057  -2.775 -13.348  0.00  0.00     0.281 C 
HETATM    8  O   UNK     0       3.956  -4.156 -12.674  0.00  0.00    -0.189 OA
HETATM    9  O   UNK     0       4.980  -5.256 -13.012  0.00  0.00    -0.196 OA
HETATM   10  C   UNK     0       6.105  -4.973 -14.024  0.00  0.00     0.265 A 
HETATM   11  C   UNK     0       7.130  -6.073 -14.362  0.00  0.00     0.231 A 
HETATM   12  O   UNK     0       8.256  -5.792 -15.375  0.00  0.00    -0.216 OA
HETATM   13  C   UNK     0       1.906  -1.957 -11.998  0.00  0.00     0.175 A 
HETATM   14  C   UNK     0       1.805  -3.338 -11.324  0.00  0.00     0.075 A 
HETATM   15  O   UNK     0       3.033  -1.676 -13.010  0.00  0.00    -0.336 OA
HETATM   16  C   UNK     0      -0.243  -1.140 -10.648  0.00  0.00     0.065 A 
HETATM   17  O   UNK     0      -0.345  -2.521  -9.973  0.00  0.00    -0.317 OA
HETATM   18  C   UNK     0       0.883  -0.858 -11.660  0.00  0.00    -0.008 A 
HETATM   19  C   UNK     0       0.679  -3.621 -10.311  0.00  0.00     0.072 A 
HETATM   20  C   UNK     0       0.984   0.523 -12.334  0.00  0.00     0.030 C 
HETATM   21  O   UNK     0       5.903  -7.736 -12.676  0.00  0.00    -0.365 OA
HETATM   22  C   UNK     0       7.028  -7.453 -13.689  0.00  0.00     0.149 A 
HETATM   23  C   UNK     0       5.801  -9.116 -12.003  0.00  0.00     0.151 A 
HETATM   24  C   UNK     0       6.825 -10.215 -12.340  0.00  0.00     0.021 A 
HETATM   25  C   UNK     0       8.053  -8.552 -14.027  0.00  0.00     0.030 A 
HETATM   26  C   UNK     0       7.951  -9.933 -13.353  0.00  0.00     0.004 A 
HETATM   27  C   UNK     0       4.675  -9.398 -10.990  0.00  0.00     0.071 C 
HETATM   28  C   UNK     0       4.574 -10.779 -10.316  0.00  0.00     0.066 C 
HETATM   29  C   UNK     0       2.423  -9.962  -8.965  0.00  0.00     0.028 C 
HETATM   30  C   UNK     0       3.448 -11.061  -9.303  0.00  0.00    -0.025 C 
HETATM   31  C   UNK     0       3.346 -12.442  -8.629  0.00  0.00     0.028 C 
HETATM   32  C   UNK     0       9.178  -8.270 -15.039  0.00  0.00     0.003 C 
HETATM   33  C   UNK     0       0.578  -5.002  -9.637  0.00  0.00    -0.021 C 
HETATM   34  C   UNK     0       1.602  -6.101  -9.975  0.00  0.00     0.028 C 
HETATM   35  C   UNK     0      -0.548  -5.283  -8.625  0.00  0.00     0.048 C 
HETATM   36  C   UNK     0      -0.650  -6.664  -7.951  0.00  0.00    -0.012 C 
HETATM   37  C   UNK     0       0.375  -7.764  -8.289  0.00  0.00     0.029 C 
HETATM   38  C   UNK     0      -1.776  -6.946  -6.938  0.00  0.00     0.148 C 
HETATM   39  C   UNK     0      -1.878  -8.327  -6.264  0.00  0.00     0.144 A 
HETATM   40  O   UNK     0      -0.853  -9.426  -6.602  0.00  0.00    -0.322 OA
HETATM   41  O   UNK     0      -2.801  -5.847  -6.600  0.00  0.00    -0.189 OA
HETATM   42  C   UNK     0      -3.004  -8.608  -5.252  0.00  0.00     0.151 A 
HETATM   43  C   UNK     0       2.227 -12.760  -7.606  0.00  0.00     0.030 C 
HETATM   44  C   UNK     0       2.109 -14.365  -6.823  0.00  0.00    -0.026 C 
HETATM   45  C   UNK     0      -3.105  -9.989  -4.578  0.00  0.00     0.004 A 
HETATM   46  C   UNK     0      -2.043 -11.076  -4.951  0.00  0.00     0.002 A 
HETATM   47  C   UNK     0      -0.955 -10.807  -5.928  0.00  0.00     0.175 A 
HETATM   48  O   UNK     0      -4.027  -7.510  -4.914  0.00  0.00    -0.188 OA
HETATM   49  C   UNK     0       1.070 -14.606  -5.898  0.00  0.00    -0.005 C 
HETATM   50  C   UNK     0       0.055 -13.367  -5.627  0.00  0.00    -0.005 C 
HETATM   51  C   UNK     0      -1.313 -12.847  -4.768  0.00  0.00    -0.024 C 
HETATM   52  C   UNK     0      -4.235 -10.223  -3.583  0.00  0.00     0.033 C 
HETATM   53  O   UNK     0       6.079  -6.386 -13.396  0.00  0.00     0.000 OA
HETATM   54  C   UNK     0      -1.998 -13.833  -3.802  0.00  0.00     0.031 C 
ENDROOT
BRANCH  16  55
HETATM   55  C   UNK     0      -1.268  -0.041 -10.309  0.00  0.00     0.072 A 
HETATM   56  C   UNK     0      -1.094   0.808  -9.036  0.00  0.00     0.007 A 
HETATM   57  C   UNK     0      -2.119   1.907  -8.698  0.00  0.00     0.056 A 
HETATM   58  C   UNK     0      -3.317   2.158  -9.633  0.00  0.00     0.127 A 
HETATM   59  C   UNK     0      -3.491   1.309 -10.906  0.00  0.00     0.093 A 
HETATM   60  O   UNK     0      -4.341   3.257  -9.294  0.00  0.00    -0.193 OA
HETATM   61  C   UNK     0      -2.466   0.210 -11.244  0.00  0.00     0.053 A 
BRANCH  59  62
HETATM   62  O   UNK     0      -4.688   1.559 -11.841  0.00  0.00    -0.331 OA
HETATM   63  C   UNK     0      -4.648   2.722 -12.849  0.00  0.00     0.181 C 
ENDBRANCH  59  62
ENDBRANCH  16  55
BRANCH  28  64
HETATM   64  O   UNK     0       5.598 -11.879 -10.654  0.00  0.00    -0.333 OA
HETATM   65  C   UNK     0       6.661 -12.285  -9.618  0.00  0.00     0.181 C 
ENDBRANCH  28  64
TORSDOF 3
ENDMDL
MODEL 2
REMARK VINA RESULT:      -8.1     23.400     27.169
REMARK  3 active torsions:
REMARK  status: ('A' for Active; 'I' for Inactive)
REMARK    1  A    between atoms: C_16  and  C_21 
REMARK    2  A    between atoms: C_24  and  O_62 
REMARK    3  A    between atoms: C_34  and  O_35 
ROOT
HETATM    1  C   UNK     0     -12.459  13.342   0.605  0.00  0.00     0.018 A 
HETATM    2  C   UNK     0     -12.693  13.092  -0.897  0.00  0.00     0.166 A 
HETATM    3  C   UNK     0     -11.135  13.965   1.085  0.00  0.00     0.004 A 
HETATM    4  N   UNK     0     -11.603  13.466  -1.918  0.00  0.00    -0.347 N 
HETATM    5  C   UNK     0     -10.045  14.338   0.063  0.00  0.00     0.024 A 
HETATM    6  C   UNK     0     -10.279  14.089  -1.438  0.00  0.00     0.099 A 
HETATM    7  C   UNK     0     -14.017  12.469  -1.376  0.00  0.00     0.281 C 
HETATM    8  O   UNK     0     -14.251  12.220  -2.878  0.00  0.00    -0.189 OA
HETATM    9  O   UNK     0     -13.161  12.593  -3.901  0.00  0.00    -0.196 OA
HETATM   10  C   UNK     0     -11.837  13.216  -3.420  0.00  0.00     0.265 A 
HETATM   11  C   UNK     0     -10.747  13.589  -4.442  0.00  0.00     0.231 A 
HETATM   12  O   UNK     0      -9.423  14.212  -3.962  0.00  0.00    -0.216 OA
HETATM   13  C   UNK     0     -16.432  11.473  -0.834  0.00  0.00     0.175 A 
HETATM   14  C   UNK     0     -16.666  11.223  -2.336  0.00  0.00     0.075 A 
HETATM   15  O   UNK     0     -15.108  12.096  -0.355  0.00  0.00    -0.336 OA
HETATM   16  C   UNK     0     -18.846  10.476  -0.293  0.00  0.00     0.065 A 
HETATM   17  O   UNK     0     -19.080  10.227  -1.794  0.00  0.00    -0.317 OA
HETATM   18  C   UNK     0     -17.522  11.099   0.187  0.00  0.00    -0.008 A 
HETATM   19  C   UNK     0     -17.990  10.600  -2.817  0.00  0.00     0.072 A 
HETATM   20  C   UNK     0     -17.289  11.349   1.689  0.00  0.00     0.030 C 
HETATM   21  O   UNK     0     -12.305  12.717  -6.424  0.00  0.00    -0.365 OA
HETATM   22  C   UNK     0     -10.981  13.340  -5.943  0.00  0.00     0.149 A 
HETATM   23  C   UNK     0     -12.538  12.467  -7.924  0.00  0.00     0.151 A 
HETATM   24  C   UNK     0     -11.449  12.841  -8.946  0.00  0.00     0.021 A 
HETATM   25  C   UNK     0      -9.890  13.713  -6.964  0.00  0.00     0.030 A 
HETATM   26  C   UNK     0     -10.124  13.464  -8.466  0.00  0.00     0.004 A 
HETATM   27  C   UNK     0     -13.863  11.844  -8.404  0.00  0.00     0.071 C 
HETATM   28  C   UNK     0     -14.097  11.594  -9.907  0.00  0.00     0.066 C 
HETATM   29  C   UNK     0     -16.511  10.598  -9.365  0.00  0.00     0.028 C 
HETATM   30  C   UNK     0     -15.421  10.971 -10.386  0.00  0.00    -0.025 C 
HETATM   31  C   UNK     0     -15.655  10.722 -11.888  0.00  0.00     0.028 C 
HETATM   32  C   UNK     0      -8.567  14.336  -6.484  0.00  0.00     0.003 C 
HETATM   33  C   UNK     0     -18.224  10.350  -4.319  0.00  0.00    -0.021 C 
HETATM   34  C   UNK     0     -17.134  10.723  -5.340  0.00  0.00     0.028 C 
HETATM   35  C   UNK     0     -19.548   9.727  -4.798  0.00  0.00     0.048 C 
HETATM   36  C   UNK     0     -19.782   9.478  -6.300  0.00  0.00    -0.012 C 
HETATM   37  C   UNK     0     -18.691   9.851  -7.322  0.00  0.00     0.029 C 
HETATM   38  C   UNK     0     -21.106   8.854  -6.780  0.00  0.00     0.148 C 
HETATM   39  C   UNK     0     -21.340   8.605  -8.281  0.00  0.00     0.144 A 
HETATM   40  O   UNK     0     -20.250   8.978  -9.303  0.00  0.00    -0.322 OA
HETATM   41  O   UNK     0     -22.197   8.481  -5.758  0.00  0.00    -0.189 OA
HETATM   42  C   UNK     0     -22.664   7.982  -8.761  0.00  0.00     0.151 A 
HETATM   43  C   UNK     0     -16.974  10.097 -12.406  0.00  0.00     0.030 C 
HETATM   44  C   UNK     0     -17.246   9.807 -14.151  0.00  0.00    -0.026 C 
HETATM   45  C   UNK     0     -22.898   7.732 -10.263  0.00  0.00     0.004 A 
HETATM   46  C   UNK     0     -21.764   8.127 -11.265  0.00  0.00     0.002 A 
HETATM   47  C   UNK     0     -20.484   8.729 -10.804  0.00  0.00     0.175 A 
HETATM   48  O   UNK     0     -23.754   7.608  -7.740  0.00  0.00    -0.188 OA
HETATM   49  C   UNK     0     -18.466   9.235 -14.573  0.00  0.00    -0.005 C 
HETATM   50  C   UNK     0     -19.533   8.886 -13.400  0.00  0.00    -0.005 C 
HETATM   51  C   UNK     0     -21.069   8.252 -13.055  0.00  0.00    -0.024 C 
HETATM   52  C   UNK     0     -24.222   7.114 -10.691  0.00  0.00     0.033 C 
HETATM   53  O   UNK     0     -11.987  13.001  -4.944  0.00  0.00     0.000 OA
HETATM   54  C   UNK     0     -21.944   7.757 -14.224  0.00  0.00     0.031 C 
ENDROOT
BRANCH  16  55
HETATM   55  C   UNK     0     -19.937  10.103   0.729  0.00  0.00     0.072 A 
HETATM   56  C   UNK     0     -20.936  11.170   1.213  0.00  0.00     0.007 A 
HETATM   57  C   UNK     0     -22.026  10.796   2.235  0.00  0.00     0.056 A 
HETATM   58  C   UNK     0     -22.117   9.356   2.772  0.00  0.00     0.127 A 
HETATM   59  C   UNK     0     -21.118   8.289   2.288  0.00  0.00     0.093 A 
HETATM   60  O   UNK     0     -23.207   8.983   3.793  0.00  0.00    -0.193 OA
HETATM   61  C   UNK     0     -20.028   8.662   1.266  0.00  0.00     0.053 A 
BRANCH  59  62
HETATM   62  O   UNK     0     -21.209   6.849   2.825  0.00  0.00    -0.331 OA
HETATM   63  C   UNK     0     -20.418   6.445   4.083  0.00  0.00     0.181 C 
ENDBRANCH  59  62
ENDBRANCH  16  55
BRANCH  28  64
HETATM   64  O   UNK     0     -13.006  11.968 -10.928  0.00  0.00    -0.333 OA
HETATM   65  C   UNK     0     -12.191  10.862 -11.622  0.00  0.00     0.181 C 
ENDBRANCH  28  64
TORSDOF 3
ENDMDL
MODEL 3
REMARK VINA RESULT:      -8.0     24.377     27.995
REMARK  3 active torsions:
REMARK  status: ('A' for Active; 'I' for Inactive)
REMARK    1  A    between atoms: C_16  and  C_21 
REMARK    2  A    between atoms: C_24  and  O_62 
REMARK    3  A    between atoms: C_34  and  O_35 
ROOT
HETATM    1  C   UNK     0     -12.927  12.689   0.333  0.00  0.00     0.018 A 
HETATM    2  C   UNK     0     -13.422  12.452  -1.106  0.00  0.00     0.166 A 
HETATM    3  C   UNK     0     -11.519  13.261   0.579  0.00  0.00     0.004 A 
HETATM    4  N   UNK     0     -12.508  12.788  -2.299  0.00  0.00    -0.347 N 
HETATM    5  C   UNK     0     -10.605  13.597  -0.614  0.00  0.00     0.024 A 
HETATM    6  C   UNK     0     -11.100  13.360  -2.053  0.00  0.00     0.099 A 
HETATM    7  C   UNK     0     -14.831  11.880  -1.351  0.00  0.00     0.281 C 
HETATM    8  O   UNK     0     -15.326  11.643  -2.790  0.00  0.00    -0.189 OA
HETATM    9  O   UNK     0     -14.412  11.979  -3.985  0.00  0.00    -0.196 OA
HETATM   10  C   UNK     0     -13.004  12.551  -3.738  0.00  0.00     0.265 A 
HETATM   11  C   UNK     0     -12.090  12.886  -4.932  0.00  0.00     0.231 A 
HETATM   12  O   UNK     0     -10.681  13.459  -4.687  0.00  0.00    -0.216 OA
HETATM   13  C   UNK     0     -17.154  10.972  -0.403  0.00  0.00     0.175 A 
HETATM   14  C   UNK     0     -17.648  10.736  -1.842  0.00  0.00     0.075 A 
HETATM   15  O   UNK     0     -15.745  11.545  -0.158  0.00  0.00    -0.336 OA
HETATM   16  C   UNK     0     -19.476  10.065   0.544  0.00  0.00     0.065 A 
HETATM   17  O   UNK     0     -19.970   9.828  -0.895  0.00  0.00    -0.317 OA
HETATM   18  C   UNK     0     -18.067  10.637   0.790  0.00  0.00    -0.008 A 
HETATM   19  C   UNK     0     -19.057  10.163  -2.089  0.00  0.00     0.072 A 
HETATM   20  C   UNK     0     -17.573  10.873   2.229  0.00  0.00     0.030 C 
HETATM   21  O   UNK     0     -13.993  12.078  -6.617  0.00  0.00    -0.365 OA
HETATM   22  C   UNK     0     -12.584  12.650  -6.370  0.00  0.00     0.149 A 
HETATM   23  C   UNK     0     -14.487  11.841  -8.055  0.00  0.00     0.151 A 
HETATM   24  C   UNK     0     -13.574  12.177  -9.249  0.00  0.00     0.021 A 
HETATM   25  C   UNK     0     -11.670  12.986  -7.564  0.00  0.00     0.030 A 
HETATM   26  C   UNK     0     -12.165  12.749  -9.003  0.00  0.00     0.004 A 
HETATM   27  C   UNK     0     -15.896  11.269  -8.301  0.00  0.00     0.071 C 
HETATM   28  C   UNK     0     -16.391  11.032  -9.741  0.00  0.00     0.066 C 
HETATM   29  C   UNK     0     -18.714  10.124  -8.793  0.00  0.00     0.028 C 
HETATM   30  C   UNK     0     -17.800  10.460  -9.986  0.00  0.00    -0.025 C 
HETATM   31  C   UNK     0     -18.295  10.223 -11.425  0.00  0.00     0.028 C 
HETATM   32  C   UNK     0     -10.263  13.558  -7.318  0.00  0.00     0.003 C 
HETATM   33  C   UNK     0     -19.551   9.927  -3.528  0.00  0.00    -0.021 C 
HETATM   34  C   UNK     0     -18.638  10.262  -4.721  0.00  0.00     0.028 C 
HETATM   35  C   UNK     0     -20.960   9.354  -3.774  0.00  0.00     0.048 C 
HETATM   36  C   UNK     0     -21.455   9.118  -5.213  0.00  0.00    -0.012 C 
HETATM   37  C   UNK     0     -20.541   9.453  -6.406  0.00  0.00     0.029 C 
HETATM   38  C   UNK     0     -22.864   8.545  -5.458  0.00  0.00     0.148 C 
HETATM   39  C   UNK     0     -23.358   8.309  -6.897  0.00  0.00     0.144 A 
HETATM   40  O   UNK     0     -22.444   8.644  -8.091  0.00  0.00    -0.322 OA
HETATM   41  O   UNK     0     -23.778   8.210  -4.265  0.00  0.00    -0.189 OA
HETATM   42  C   UNK     0     -24.767   7.736  -7.143  0.00  0.00     0.151 A 
HETATM   43  C   UNK     0     -19.705   9.649 -11.710  0.00  0.00     0.030 C 
HETATM   44  C   UNK     0     -20.280   9.374 -13.381  0.00  0.00    -0.026 C 
HETATM   45  C   UNK     0     -25.262   7.500  -8.582  0.00  0.00     0.004 A 
HETATM   46  C   UNK     0     -24.300   7.855  -9.764  0.00  0.00     0.002 A 
HETATM   47  C   UNK     0     -22.939   8.408  -9.530  0.00  0.00     0.175 A 
HETATM   48  O   UNK     0     -25.680   7.401  -5.950  0.00  0.00    -0.188 OA
HETATM   49  C   UNK     0     -21.574   8.849 -13.589  0.00  0.00    -0.005 C 
HETATM   50  C   UNK     0     -22.439   8.537 -12.250  0.00  0.00    -0.005 C 
HETATM   51  C   UNK     0     -23.916   7.959 -11.647  0.00  0.00    -0.024 C 
HETATM   52  C   UNK     0     -26.661   6.933  -8.777  0.00  0.00     0.033 C 
HETATM   53  O   UNK     0     -13.418  12.346  -5.214  0.00  0.00     0.000 OA
HETATM   54  C   UNK     0     -24.994   7.500 -12.648  0.00  0.00     0.031 C 
ENDROOT
BRANCH  16  55
HETATM   55  C   UNK     0     -20.390   9.729   1.738  0.00  0.00     0.072 A 
HETATM   56  C   UNK     0     -21.619  10.607   2.036  0.00  0.00     0.007 A 
HETATM   57  C   UNK     0     -22.533  10.271   3.230  0.00  0.00     0.056 A 
HETATM   58  C   UNK     0     -22.218   9.058   4.125  0.00  0.00     0.127 A 
HETATM   59  C   UNK     0     -20.988   8.180   3.826  0.00  0.00     0.093 A 
HETATM   60  O   UNK     0     -23.131   8.723   5.317  0.00  0.00    -0.193 OA
HETATM   61  C   UNK     0     -20.074   8.516   2.633  0.00  0.00     0.053 A 
BRANCH  59  62
HETATM   62  O   UNK     0     -20.672   6.968   4.720  0.00  0.00    -0.331 OA
HETATM   63  C   UNK     0     -20.403   5.591   4.084  0.00  0.00     0.181 C 
ENDBRANCH  59  62
ENDBRANCH  16  55
BRANCH  28  64
HETATM   64  O   UNK     0     -15.477  11.368 -10.934  0.00  0.00    -0.333 OA
HETATM   65  C   UNK     0     -15.792  12.581 -11.827  0.00  0.00     0.181 C 
ENDBRANCH  28  64
TORSDOF 3
ENDMDL
MODEL 4
REMARK VINA RESULT:      -8.0     22.063     23.834
REMARK  3 active torsions:
REMARK  status: ('A' for Active; 'I' for Inactive)
REMARK    1  A    between atoms: C_16  and  C_21 
REMARK    2  A    between atoms: C_24  and  O_62 
REMARK    3  A    between atoms: C_34  and  O_35 
ROOT
HETATM    1  C   UNK     0      -3.732  15.160 -12.034  0.00  0.00     0.018 A 
HETATM    2  C   UNK     0      -5.179  14.669 -11.842  0.00  0.00     0.166 A 
HETATM    3  C   UNK     0      -3.150  15.304 -13.452  0.00  0.00     0.004 A 
HETATM    4  N   UNK     0      -6.044  14.323 -13.069  0.00  0.00    -0.347 N 
HETATM    5  C   UNK     0      -4.014  14.958 -14.678  0.00  0.00     0.024 A 
HETATM    6  C   UNK     0      -5.461  14.467 -14.487  0.00  0.00     0.099 A 
HETATM    7  C   UNK     0      -5.762  14.525 -10.424  0.00  0.00     0.281 C 
HETATM    8  O   UNK     0      -7.209  14.035 -10.232  0.00  0.00    -0.189 OA
HETATM    9  O   UNK     0      -8.075  13.688 -11.459  0.00  0.00    -0.196 OA
HETATM   10  C   UNK     0      -7.491  13.832 -12.877  0.00  0.00     0.265 A 
HETATM   11  C   UNK     0      -8.356  13.485 -14.104  0.00  0.00     0.231 A 
HETATM   12  O   UNK     0      -7.773  13.630 -15.522  0.00  0.00    -0.216 OA
HETATM   13  C   UNK     0      -5.481  14.728  -7.779  0.00  0.00     0.175 A 
HETATM   14  C   UNK     0      -6.928  14.237  -7.587  0.00  0.00     0.075 A 
HETATM   15  O   UNK     0      -4.898  14.872  -9.197  0.00  0.00    -0.336 OA
HETATM   16  C   UNK     0      -5.199  14.930  -5.134  0.00  0.00     0.065 A 
HETATM   17  O   UNK     0      -6.646  14.439  -4.943  0.00  0.00    -0.317 OA
HETATM   18  C   UNK     0      -4.616  15.074  -6.553  0.00  0.00    -0.008 A 
HETATM   19  C   UNK     0      -7.511  14.092  -6.169  0.00  0.00     0.072 A 
HETATM   20  C   UNK     0      -3.169  15.565  -6.743  0.00  0.00     0.030 C 
HETATM   21  O   UNK     0     -10.386  12.850 -12.495  0.00  0.00    -0.365 OA
HETATM   22  C   UNK     0      -9.802  12.995 -13.912  0.00  0.00     0.149 A 
HETATM   23  C   UNK     0     -11.832  12.360 -12.303  0.00  0.00     0.151 A 
HETATM   24  C   UNK     0     -12.696  12.014 -13.529  0.00  0.00     0.021 A 
HETATM   25  C   UNK     0     -10.666  12.648 -15.139  0.00  0.00     0.030 A 
HETATM   26  C   UNK     0     -12.114  12.158 -14.948  0.00  0.00     0.004 A 
HETATM   27  C   UNK     0     -12.415  12.216 -10.885  0.00  0.00     0.071 C 
HETATM   28  C   UNK     0     -13.863  11.725 -10.693  0.00  0.00     0.066 C 
HETATM   29  C   UNK     0     -13.581  11.927  -8.048  0.00  0.00     0.028 C 
HETATM   30  C   UNK     0     -14.446  11.580  -9.275  0.00  0.00    -0.025 C 
HETATM   31  C   UNK     0     -15.893  11.090  -9.083  0.00  0.00     0.028 C 
HETATM   32  C   UNK     0     -10.084  12.793 -16.557  0.00  0.00     0.003 C 
HETATM   33  C   UNK     0      -8.959  13.601  -5.978  0.00  0.00    -0.021 C 
HETATM   34  C   UNK     0      -9.823  13.255  -7.204  0.00  0.00     0.028 C 
HETATM   35  C   UNK     0      -9.541  13.457  -4.559  0.00  0.00     0.048 C 
HETATM   36  C   UNK     0     -10.988  12.967  -4.368  0.00  0.00    -0.012 C 
HETATM   37  C   UNK     0     -11.853  12.620  -5.595  0.00  0.00     0.029 C 
HETATM   38  C   UNK     0     -11.571  12.822  -2.949  0.00  0.00     0.148 C 
HETATM   39  C   UNK     0     -13.018  12.332  -2.758  0.00  0.00     0.144 A 
HETATM   40  O   UNK     0     -13.883  11.985  -3.985  0.00  0.00    -0.322 OA
HETATM   41  O   UNK     0     -10.707  13.169  -1.722  0.00  0.00    -0.189 OA
HETATM   42  C   UNK     0     -13.601  12.187  -1.339  0.00  0.00     0.151 A 
HETATM   43  C   UNK     0     -16.512  10.933  -7.672  0.00  0.00     0.030 C 
HETATM   44  C   UNK     0     -18.193  10.363  -7.449  0.00  0.00    -0.026 C 
HETATM   45  C   UNK     0     -15.048  11.697  -1.148  0.00  0.00     0.004 A 
HETATM   46  C   UNK     0     -15.890  11.356  -2.422  0.00  0.00     0.002 A 
HETATM   47  C   UNK     0     -15.330  11.494  -3.793  0.00  0.00     0.175 A 
HETATM   48  O   UNK     0     -12.737  12.534  -0.113  0.00  0.00    -0.188 OA
HETATM   49  C   UNK     0     -18.711  10.236  -6.142  0.00  0.00    -0.005 C 
HETATM   50  C   UNK     0     -17.701  10.632  -4.933  0.00  0.00    -0.005 C 
HETATM   51  C   UNK     0     -17.522  10.761  -3.251  0.00  0.00    -0.024 C 
HETATM   52  C   UNK     0     -15.582  11.569   0.272  0.00  0.00     0.033 C 
HETATM   53  O   UNK     0      -8.951  13.333 -12.778  0.00  0.00     0.000 OA
HETATM   54  C   UNK     0     -18.714  10.386  -2.350  0.00  0.00     0.031 C 
ENDROOT
BRANCH  16  55
HETATM   55  C   UNK     0      -4.335  15.276  -3.907  0.00  0.00     0.072 A 
HETATM   56  C   UNK     0      -4.466  16.657  -3.238  0.00  0.00     0.007 A 
HETATM   57  C   UNK     0      -3.602  17.004  -2.011  0.00  0.00     0.056 A 
HETATM   58  C   UNK     0      -2.606  15.969  -1.453  0.00  0.00     0.127 A 
HETATM   59  C   UNK     0      -2.475  14.589  -2.123  0.00  0.00     0.093 A 
HETATM   60  O   UNK     0      -1.742  16.316  -0.227  0.00  0.00    -0.193 OA
HETATM   61  C   UNK     0      -3.339  14.242  -3.349  0.00  0.00     0.053 A 
BRANCH  59  62
HETATM   62  O   UNK     0      -1.480  13.554  -1.565  0.00  0.00    -0.331 OA
HETATM   63  C   UNK     0      -1.826  12.762  -0.291  0.00  0.00     0.181 C 
ENDBRANCH  59  62
ENDBRANCH  16  55
BRANCH  28  64
HETATM   64  O   UNK     0     -14.727  11.378 -11.920  0.00  0.00    -0.333 OA
HETATM   65  C   UNK     0     -15.018   9.907 -12.265  0.00  0.00     0.181 C 
ENDBRANCH  28  64
TORSDOF 3
ENDMDL
MODEL 5
REMARK VINA RESULT:      -7.9     23.346     29.336
REMARK  3 active torsions:
REMARK  status: ('A' for Active; 'I' for Inactive)
REMARK    1  A    between atoms: C_16  and  C_21 
REMARK    2  A    between atoms: C_24  and  O_62 
REMARK    3  A    between atoms: C_34  and  O_35 
ROOT
HETATM    1  C   UNK     0     -10.633  12.045  15.031  0.00  0.00     0.018 A 
HETATM    2  C   UNK     0      -9.811  10.744  15.013  0.00  0.00     0.166 A 
HETATM    3  C   UNK     0     -11.964  12.105  15.805  0.00  0.00     0.004 A 
HETATM    4  N   UNK     0     -10.318   9.501  15.769  0.00  0.00    -0.347 N 
HETATM    5  C   UNK     0     -12.471  10.863  16.560  0.00  0.00     0.024 A 
HETATM    6  C   UNK     0     -11.648   9.561  16.542  0.00  0.00     0.099 A 
HETATM    7  C   UNK     0      -8.480  10.684  14.239  0.00  0.00     0.281 C 
HETATM    8  O   UNK     0      -7.658   9.382  14.221  0.00  0.00    -0.189 OA
HETATM    9  O   UNK     0      -8.165   8.139  14.977  0.00  0.00    -0.196 OA
HETATM   10  C   UNK     0      -9.495   8.200  15.750  0.00  0.00     0.265 A 
HETATM   11  C   UNK     0     -10.002   6.957  16.506  0.00  0.00     0.231 A 
HETATM   12  O   UNK     0     -11.332   7.017  17.280  0.00  0.00    -0.216 OA
HETATM   13  C   UNK     0      -6.642  11.867  12.709  0.00  0.00     0.175 A 
HETATM   14  C   UNK     0      -5.820  10.565  12.691  0.00  0.00     0.075 A 
HETATM   15  O   UNK     0      -7.973  11.926  13.483  0.00  0.00    -0.336 OA
HETATM   16  C   UNK     0      -4.805  13.049  11.179  0.00  0.00     0.065 A 
HETATM   17  O   UNK     0      -3.982  11.748  11.161  0.00  0.00    -0.317 OA
HETATM   18  C   UNK     0      -6.135  13.109  11.953  0.00  0.00    -0.008 A 
HETATM   19  C   UNK     0      -4.489  10.505  11.917  0.00  0.00     0.072 A 
HETATM   20  C   UNK     0      -6.957  14.411  11.970  0.00  0.00     0.030 C 
HETATM   21  O   UNK     0      -7.849   5.595  15.715  0.00  0.00    -0.365 OA
HETATM   22  C   UNK     0      -9.180   5.656  16.488  0.00  0.00     0.149 A 
HETATM   23  C   UNK     0      -7.027   4.295  15.697  0.00  0.00     0.151 A 
HETATM   24  C   UNK     0      -7.534   3.053  16.453  0.00  0.00     0.021 A 
HETATM   25  C   UNK     0      -9.687   4.414  17.244  0.00  0.00     0.030 A 
HETATM   26  C   UNK     0      -8.865   3.112  17.227  0.00  0.00     0.004 A 
HETATM   27  C   UNK     0      -5.697   4.235  14.923  0.00  0.00     0.071 C 
HETATM   28  C   UNK     0      -4.874   2.933  14.905  0.00  0.00     0.066 C 
HETATM   29  C   UNK     0      -3.036   4.115  13.375  0.00  0.00     0.028 C 
HETATM   30  C   UNK     0      -3.543   2.873  14.131  0.00  0.00    -0.025 C 
HETATM   31  C   UNK     0      -2.721   1.572  14.113  0.00  0.00     0.028 C 
HETATM   32  C   UNK     0     -11.017   4.474  18.018  0.00  0.00     0.003 C 
HETATM   33  C   UNK     0      -3.667   9.203  11.899  0.00  0.00    -0.021 C 
HETATM   34  C   UNK     0      -4.174   7.961  12.655  0.00  0.00     0.028 C 
HETATM   35  C   UNK     0      -2.336   9.143  11.125  0.00  0.00     0.048 C 
HETATM   36  C   UNK     0      -1.514   7.842  11.107  0.00  0.00    -0.012 C 
HETATM   37  C   UNK     0      -2.021   6.599  11.863  0.00  0.00     0.029 C 
HETATM   38  C   UNK     0      -0.183   7.782  10.333  0.00  0.00     0.148 C 
HETATM   39  C   UNK     0       0.640   6.481  10.315  0.00  0.00     0.144 A 
HETATM   40  O   UNK     0       0.132   5.238  11.072  0.00  0.00    -0.322 OA
HETATM   41  O   UNK     0       0.324   9.024   9.577  0.00  0.00    -0.189 OA
HETATM   42  C   UNK     0       1.970   6.421   9.541  0.00  0.00     0.151 A 
HETATM   43  C   UNK     0      -1.379   1.476  13.346  0.00  0.00     0.030 C 
HETATM   44  C   UNK     0      -0.423  -0.037  13.325  0.00  0.00    -0.026 C 
HETATM   45  C   UNK     0       2.793   5.119   9.524  0.00  0.00     0.004 A 
HETATM   46  C   UNK     0       2.239   3.882  10.305  0.00  0.00     0.002 A 
HETATM   47  C   UNK     0       0.955   3.937  11.054  0.00  0.00     0.175 A 
HETATM   48  O   UNK     0       2.477   7.663   8.786  0.00  0.00    -0.188 OA
HETATM   49  C   UNK     0       0.794  -0.074  12.610  0.00  0.00    -0.005 C 
HETATM   50  C   UNK     0       1.220   1.300  11.855  0.00  0.00    -0.005 C 
HETATM   51  C   UNK     0       2.389   2.052  10.882  0.00  0.00    -0.024 C 
HETATM   52  C   UNK     0       4.101   5.107   8.746  0.00  0.00     0.033 C 
HETATM   53  O   UNK     0      -8.735   6.853  15.786  0.00  0.00     0.000 OA
HETATM   54  C   UNK     0       3.620   1.237  10.443  0.00  0.00     0.031 C 
ENDROOT
BRANCH  16  55
HETATM   55  C   UNK     0      -4.297  14.292  10.423  0.00  0.00     0.072 A 
HETATM   56  C   UNK     0      -3.544  15.400  11.181  0.00  0.00     0.007 A 
HETATM   57  C   UNK     0      -3.036  16.642  10.425  0.00  0.00     0.056 A 
HETATM   58  C   UNK     0      -3.282  16.776   8.911  0.00  0.00     0.127 A 
HETATM   59  C   UNK     0      -4.036  15.668   8.152  0.00  0.00     0.093 A 
HETATM   60  O   UNK     0      -2.775  18.018   8.156  0.00  0.00    -0.193 OA
HETATM   61  C   UNK     0      -4.544  14.426   8.908  0.00  0.00     0.053 A 
BRANCH  59  62
HETATM   62  O   UNK     0      -4.282  15.801   6.639  0.00  0.00    -0.331 OA
HETATM   63  C   UNK     0      -3.836  14.678   5.684  0.00  0.00     0.181 C 
ENDBRANCH  59  62
ENDBRANCH  16  55
BRANCH  28  64
HETATM   64  O   UNK     0      -5.381   1.690  15.661  0.00  0.00    -0.333 OA
HETATM   65  C   UNK     0      -5.664   0.386  14.895  0.00  0.00     0.181 C 
ENDBRANCH  28  64
TORSDOF 3
ENDMDL
MODEL 6
REMARK VINA RESULT:      -7.9      2.569      8.976
REMARK  3 active torsions:
REMARK  status: ('A' for Active; 'I' for Inactive)
REMARK    1  A    between atoms: C_16  and  C_21 
REMARK    2  A    between atoms: C_24  and  O_62 
REMARK    3  A    between atoms: C_34  and  O_35 
ROOT
HETATM    1  C   UNK     0      -1.404  -1.203 -10.408  0.00  0.00     0.018 A 
HETATM    2  C   UNK     0      -0.161  -1.956 -10.919  0.00  0.00     0.166 A 
HETATM    3  C   UNK     0      -1.652   0.255 -10.839  0.00  0.00     0.004 A 
HETATM    4  N   UNK     0       0.834  -1.251 -11.860  0.00  0.00    -0.347 N 
HETATM    5  C   UNK     0      -0.657   0.959 -11.779  0.00  0.00     0.024 A 
HETATM    6  C   UNK     0       0.585   0.206 -12.290  0.00  0.00     0.099 A 
HETATM    7  C   UNK     0       0.087  -3.414 -10.488  0.00  0.00     0.281 C 
HETATM    8  O   UNK     0       1.329  -4.167 -10.999  0.00  0.00    -0.189 OA
HETATM    9  O   UNK     0       2.325  -3.463 -11.940  0.00  0.00    -0.196 OA
HETATM   10  C   UNK     0       2.076  -2.005 -12.370  0.00  0.00     0.265 A 
HETATM   11  C   UNK     0       3.071  -1.300 -13.312  0.00  0.00     0.231 A 
HETATM   12  O   UNK     0       2.824   0.158 -13.742  0.00  0.00    -0.216 OA
HETATM   13  C   UNK     0      -0.660  -5.577  -9.117  0.00  0.00     0.175 A 
HETATM   14  C   UNK     0       0.582  -6.330  -9.627  0.00  0.00     0.075 A 
HETATM   15  O   UNK     0      -0.908  -4.119  -9.547  0.00  0.00    -0.336 OA
HETATM   16  C   UNK     0      -1.407  -7.739  -7.745  0.00  0.00     0.065 A 
HETATM   17  O   UNK     0      -0.164  -8.492  -8.256  0.00  0.00    -0.317 OA
HETATM   18  C   UNK     0      -1.655  -6.281  -8.176  0.00  0.00    -0.008 A 
HETATM   19  C   UNK     0       0.831  -7.788  -9.197  0.00  0.00     0.072 A 
HETATM   20  C   UNK     0      -2.898  -5.529  -7.665  0.00  0.00     0.030 C 
HETATM   21  O   UNK     0       4.562  -3.510 -13.392  0.00  0.00    -0.365 OA
HETATM   22  C   UNK     0       4.313  -2.053 -13.822  0.00  0.00     0.149 A 
HETATM   23  C   UNK     0       5.804  -4.263 -13.903  0.00  0.00     0.151 A 
HETATM   24  C   UNK     0       6.798  -3.559 -14.843  0.00  0.00     0.021 A 
HETATM   25  C   UNK     0       5.308  -1.348 -14.763  0.00  0.00     0.030 A 
HETATM   26  C   UNK     0       6.550  -2.101 -15.274  0.00  0.00     0.004 A 
HETATM   27  C   UNK     0       6.052  -5.721 -13.472  0.00  0.00     0.071 C 
HETATM   28  C   UNK     0       7.295  -6.474 -13.983  0.00  0.00     0.066 C 
HETATM   29  C   UNK     0       6.548  -8.637 -12.611  0.00  0.00     0.028 C 
HETATM   30  C   UNK     0       7.543  -7.932 -13.552  0.00  0.00    -0.025 C 
HETATM   31  C   UNK     0       8.785  -8.685 -14.063  0.00  0.00     0.028 C 
HETATM   32  C   UNK     0       5.060   0.109 -15.193  0.00  0.00     0.003 C 
HETATM   33  C   UNK     0       2.074  -8.541  -9.708  0.00  0.00    -0.021 C 
HETATM   34  C   UNK     0       3.068  -7.836 -10.649  0.00  0.00     0.028 C 
HETATM   35  C   UNK     0       2.321  -9.999  -9.277  0.00  0.00     0.048 C 
HETATM   36  C   UNK     0       3.564 -10.752  -9.788  0.00  0.00    -0.012 C 
HETATM   37  C   UNK     0       4.559 -10.047 -10.729  0.00  0.00     0.029 C 
HETATM   38  C   UNK     0       3.812 -12.209  -9.357  0.00  0.00     0.148 C 
HETATM   39  C   UNK     0       5.054 -12.962  -9.868  0.00  0.00     0.144 A 
HETATM   40  O   UNK     0       6.049 -12.257 -10.809  0.00  0.00    -0.322 OA
HETATM   41  O   UNK     0       2.817 -12.915  -8.416  0.00  0.00    -0.189 OA
HETATM   42  C   UNK     0       5.302 -14.420  -9.438  0.00  0.00     0.151 A 
HETATM   43  C   UNK     0       9.066 -10.151 -13.651  0.00  0.00     0.030 C 
HETATM   44  C   UNK     0      10.510 -11.026 -14.244  0.00  0.00    -0.026 C 
HETATM   45  C   UNK     0       6.545 -15.173  -9.948  0.00  0.00     0.004 A 
HETATM   46  C   UNK     0       7.528 -14.418 -10.902  0.00  0.00     0.002 A 
HETATM   47  C   UNK     0       7.292 -13.010 -11.320  0.00  0.00     0.175 A 
HETATM   48  O   UNK     0       4.308 -15.125  -8.497  0.00  0.00    -0.188 OA
HETATM   49  C   UNK     0      10.722 -12.362 -13.839  0.00  0.00    -0.005 C 
HETATM   50  C   UNK     0       9.602 -12.992 -12.846  0.00  0.00    -0.005 C 
HETATM   51  C   UNK     0       9.126 -14.368 -11.974  0.00  0.00    -0.024 C 
HETATM   52  C   UNK     0       6.749 -16.613  -9.497  0.00  0.00     0.033 C 
HETATM   53  O   UNK     0       3.348  -2.684 -12.930  0.00  0.00     0.000 OA
HETATM   54  C   UNK     0      10.010 -15.628 -12.042  0.00  0.00     0.031 C 
ENDROOT
BRANCH  16  55
HETATM   55  C   UNK     0      -2.402  -8.444  -6.804  0.00  0.00     0.072 A 
HETATM   56  C   UNK     0      -3.663  -9.115  -7.380  0.00  0.00     0.007 A 
HETATM   57  C   UNK     0      -4.658  -9.820  -6.438  0.00  0.00     0.056 A 
HETATM   58  C   UNK     0      -4.391  -9.854  -4.922  0.00  0.00     0.127 A 
HETATM   59  C   UNK     0      -3.130  -9.183  -4.346  0.00  0.00     0.093 A 
HETATM   60  O   UNK     0      -5.386 -10.559  -3.981  0.00  0.00    -0.193 OA
HETATM   61  C   UNK     0      -2.136  -8.478  -5.287  0.00  0.00     0.053 A 
BRANCH  59  62
HETATM   62  O   UNK     0      -2.864  -9.217  -2.830  0.00  0.00    -0.331 OA
HETATM   63  C   UNK     0      -3.731  -8.374  -1.877  0.00  0.00     0.181 C 
ENDBRANCH  59  62
ENDBRANCH  16  55
BRANCH  28  64
HETATM   64  O   UNK     0       8.290  -5.769 -14.924  0.00  0.00    -0.333 OA
HETATM   65  C   UNK     0       9.689  -5.382 -14.414  0.00  0.00     0.181 C 
ENDBRANCH  28  64
TORSDOF 3
ENDMDL
MODEL 7
REMARK VINA RESULT:      -7.8     13.647     15.685
REMARK  3 active torsions:
REMARK  status: ('A' for Active; 'I' for Inactive)
REMARK    1  A    between atoms: C_16  and  C_21 
REMARK    2  A    between atoms: C_24  and  O_62 
REMARK    3  A    between atoms: C_34  and  O_35 
ROOT
HETATM    1  C   UNK     0      10.525 -12.194   0.844  0.00  0.00     0.018 A 
HETATM    2  C   UNK     0       9.218 -12.982   1.050  0.00  0.00     0.166 A 
HETATM    3  C   UNK     0      11.822 -12.937   0.473  0.00  0.00     0.004 A 
HETATM    4  N   UNK     0       9.208 -14.513   0.884  0.00  0.00    -0.347 N 
HETATM    5  C   UNK     0      11.812 -14.467   0.307  0.00  0.00     0.024 A 
HETATM    6  C   UNK     0      10.505 -15.255   0.512  0.00  0.00     0.099 A 
HETATM    7  C   UNK     0       7.921 -12.238   1.421  0.00  0.00     0.281 C 
HETATM    8  O   UNK     0       6.614 -13.027   1.626  0.00  0.00    -0.189 OA
HETATM    9  O   UNK     0       6.603 -14.558   1.460  0.00  0.00    -0.196 OA
HETATM   10  C   UNK     0       7.901 -15.300   1.089  0.00  0.00     0.265 A 
HETATM   11  C   UNK     0       7.890 -16.832   0.923  0.00  0.00     0.231 A 
HETATM   12  O   UNK     0       9.187 -17.575   0.552  0.00  0.00    -0.216 OA
HETATM   13  C   UNK     0       6.634  -9.964   1.958  0.00  0.00     0.175 A 
HETATM   14  C   UNK     0       5.327 -10.752   2.163  0.00  0.00     0.075 A 
HETATM   15  O   UNK     0       7.931 -10.707   1.587  0.00  0.00    -0.336 OA
HETATM   16  C   UNK     0       5.348  -7.690   2.495  0.00  0.00     0.065 A 
HETATM   17  O   UNK     0       4.041  -8.478   2.700  0.00  0.00    -0.317 OA
HETATM   18  C   UNK     0       6.645  -8.434   2.124  0.00  0.00    -0.008 A 
HETATM   19  C   UNK     0       4.030 -10.010   2.535  0.00  0.00     0.072 A 
HETATM   20  C   UNK     0       7.951  -7.645   1.919  0.00  0.00     0.030 C 
HETATM   21  O   UNK     0       5.286 -16.878   1.500  0.00  0.00    -0.365 OA
HETATM   22  C   UNK     0       6.584 -17.620   1.129  0.00  0.00     0.149 A 
HETATM   23  C   UNK     0       3.980 -17.665   1.705  0.00  0.00     0.151 A 
HETATM   24  C   UNK     0       3.970 -19.196   1.539  0.00  0.00     0.021 A 
HETATM   25  C   UNK     0       6.574 -19.151   0.963  0.00  0.00     0.030 A 
HETATM   26  C   UNK     0       5.267 -19.939   1.168  0.00  0.00     0.004 A 
HETATM   27  C   UNK     0       2.683 -16.922   2.076  0.00  0.00     0.071 C 
HETATM   28  C   UNK     0       1.375 -17.711   2.282  0.00  0.00     0.066 C 
HETATM   29  C   UNK     0       0.088 -15.436   2.819  0.00  0.00     0.028 C 
HETATM   30  C   UNK     0       0.078 -16.967   2.653  0.00  0.00    -0.025 C 
HETATM   31  C   UNK     0      -1.229 -17.755   2.859  0.00  0.00     0.028 C 
HETATM   32  C   UNK     0       7.870 -19.893   0.592  0.00  0.00     0.003 C 
HETATM   33  C   UNK     0       2.723 -10.798   2.740  0.00  0.00    -0.021 C 
HETATM   34  C   UNK     0       2.712 -12.329   2.574  0.00  0.00     0.028 C 
HETATM   35  C   UNK     0       1.426 -10.055   3.111  0.00  0.00     0.048 C 
HETATM   36  C   UNK     0       0.119 -10.843   3.317  0.00  0.00    -0.012 C 
HETATM   37  C   UNK     0       0.109 -12.374   3.151  0.00  0.00     0.029 C 
HETATM   38  C   UNK     0      -1.178 -10.100   3.688  0.00  0.00     0.148 C 
HETATM   39  C   UNK     0      -2.485 -10.888   3.893  0.00  0.00     0.144 A 
HETATM   40  O   UNK     0      -2.495 -12.419   3.727  0.00  0.00    -0.322 OA
HETATM   41  O   UNK     0      -1.168  -8.569   3.854  0.00  0.00    -0.189 OA
HETATM   42  C   UNK     0      -3.782 -10.145   4.265  0.00  0.00     0.151 A 
HETATM   43  C   UNK     0      -2.552 -17.041   3.232  0.00  0.00     0.030 C 
HETATM   44  C   UNK     0      -4.070 -17.957   3.471  0.00  0.00    -0.026 C 
HETATM   45  C   UNK     0      -5.089 -10.933   4.470  0.00  0.00     0.004 A 
HETATM   46  C   UNK     0      -5.054 -12.487   4.291  0.00  0.00     0.002 A 
HETATM   47  C   UNK     0      -3.802 -13.207   3.933  0.00  0.00     0.175 A 
HETATM   48  O   UNK     0      -3.772  -8.614   4.430  0.00  0.00    -0.188 OA
HETATM   49  C   UNK     0      -5.250 -17.260   3.811  0.00  0.00    -0.005 C 
HETATM   50  C   UNK     0      -5.109 -15.648   3.957  0.00  0.00    -0.005 C 
HETATM   51  C   UNK     0      -5.927 -14.202   4.298  0.00  0.00    -0.024 C 
HETATM   52  C   UNK     0      -6.347 -10.157   4.836  0.00  0.00     0.033 C 
HETATM   53  O   UNK     0       6.636 -16.170   1.276  0.00  0.00     0.000 OA
HETATM   54  C   UNK     0      -7.431 -14.263   4.627  0.00  0.00     0.031 C 
ENDROOT
BRANCH  16  55
HETATM   55  C   UNK     0       5.358  -6.159   2.661  0.00  0.00     0.072 A 
HETATM   56  C   UNK     0       5.123  -5.251   1.440  0.00  0.00     0.007 A 
HETATM   57  C   UNK     0       5.133  -3.720   1.606  0.00  0.00     0.056 A 
HETATM   58  C   UNK     0       5.378  -3.097   2.993  0.00  0.00     0.127 A 
HETATM   59  C   UNK     0       5.612  -4.005   4.214  0.00  0.00     0.093 A 
HETATM   60  O   UNK     0       5.388  -1.566   3.158  0.00  0.00    -0.193 OA
HETATM   61  C   UNK     0       5.602  -5.536   4.048  0.00  0.00     0.053 A 
BRANCH  59  62
HETATM   62  O   UNK     0       5.857  -3.383   5.601  0.00  0.00    -0.331 OA
HETATM   63  C   UNK     0       4.668  -2.866   6.433  0.00  0.00     0.181 C 
ENDBRANCH  59  62
ENDBRANCH  16  55
BRANCH  28  64
HETATM   64  O   UNK     0       1.365 -19.242   2.116  0.00  0.00    -0.333 OA
HETATM   65  C   UNK     0       1.224 -20.149   3.351  0.00  0.00     0.181 C 
ENDBRANCH  28  64
TORSDOF 3
ENDMDL
MODEL 8
REMARK VINA RESULT:      -7.7     24.051     26.917
REMARK  3 active torsions:
REMARK  status: ('A' for Active; 'I' for Inactive)
REMARK    1  A    between atoms: C_16  and  C_21 
REMARK    2  A    between atoms: C_24  and  O_62 
REMARK    3  A    between atoms: C_34  and  O_35 
ROOT
HETATM    1  C   UNK     0     -10.752  13.221  -8.754  0.00  0.00     0.018 A 
HETATM    2  C   UNK     0     -11.670  12.900  -7.560  0.00  0.00     0.166 A 
HETATM    3  C   UNK     0      -9.350  13.810  -8.510  0.00  0.00     0.004 A 
HETATM    4  N   UNK     0     -11.186  13.168  -6.122  0.00  0.00    -0.347 N 
HETATM    5  C   UNK     0      -8.866  14.078  -7.073  0.00  0.00     0.024 A 
HETATM    6  C   UNK     0      -9.785  13.757  -5.879  0.00  0.00     0.099 A 
HETATM    7  C   UNK     0     -13.072  12.311  -7.803  0.00  0.00     0.281 C 
HETATM    8  O   UNK     0     -13.990  11.989  -6.609  0.00  0.00    -0.189 OA
HETATM    9  O   UNK     0     -13.507  12.257  -5.171  0.00  0.00    -0.196 OA
HETATM   10  C   UNK     0     -12.105  12.846  -4.929  0.00  0.00     0.265 A 
HETATM   11  C   UNK     0     -11.621  13.114  -3.491  0.00  0.00     0.231 A 
HETATM   12  O   UNK     0     -10.219  13.703  -3.247  0.00  0.00    -0.216 OA
HETATM   13  C   UNK     0     -14.958  11.454  -9.484  0.00  0.00     0.175 A 
HETATM   14  C   UNK     0     -15.877  11.132  -8.290  0.00  0.00     0.075 A 
HETATM   15  O   UNK     0     -13.556  12.043  -9.241  0.00  0.00    -0.336 OA
HETATM   16  C   UNK     0     -16.844  10.597 -11.165  0.00  0.00     0.065 A 
HETATM   17  O   UNK     0     -17.762  10.276  -9.971  0.00  0.00    -0.317 OA
HETATM   18  C   UNK     0     -15.442  11.186 -10.921  0.00  0.00    -0.008 A 
HETATM   19  C   UNK     0     -17.279  10.543  -8.532  0.00  0.00     0.072 A 
HETATM   20  C   UNK     0     -14.525  11.507 -12.116  0.00  0.00     0.030 C 
HETATM   21  O   UNK     0     -13.941  12.204  -2.540  0.00  0.00    -0.365 OA
HETATM   22  C   UNK     0     -12.539  12.793  -2.297  0.00  0.00     0.149 A 
HETATM   23  C   UNK     0     -14.858  11.883  -1.346  0.00  0.00     0.151 A 
HETATM   24  C   UNK     0     -14.375  12.150   0.091  0.00  0.00     0.021 A 
HETATM   25  C   UNK     0     -12.055  13.061  -0.860  0.00  0.00     0.030 A 
HETATM   26  C   UNK     0     -12.973  12.739   0.334  0.00  0.00     0.004 A 
HETATM   27  C   UNK     0     -16.260  11.293  -1.590  0.00  0.00     0.071 C 
HETATM   28  C   UNK     0     -17.179  10.972  -0.395  0.00  0.00     0.066 C 
HETATM   29  C   UNK     0     -19.065  10.115  -2.076  0.00  0.00     0.028 C 
HETATM   30  C   UNK     0     -18.581  10.383  -0.639  0.00  0.00    -0.025 C 
HETATM   31  C   UNK     0     -19.499  10.062   0.555  0.00  0.00     0.028 C 
HETATM   32  C   UNK     0     -10.653  13.649  -0.617  0.00  0.00     0.003 C 
HETATM   33  C   UNK     0     -18.197  10.222  -7.338  0.00  0.00    -0.021 C 
HETATM   34  C   UNK     0     -17.713  10.490  -5.902  0.00  0.00     0.028 C 
HETATM   35  C   UNK     0     -19.599   9.633  -7.582  0.00  0.00     0.048 C 
HETATM   36  C   UNK     0     -20.517   9.312  -6.388  0.00  0.00    -0.012 C 
HETATM   37  C   UNK     0     -20.033   9.580  -4.950  0.00  0.00     0.029 C 
HETATM   38  C   UNK     0     -21.919   8.722  -6.631  0.00  0.00     0.148 C 
HETATM   39  C   UNK     0     -22.837   8.401  -5.437  0.00  0.00     0.144 A 
HETATM   40  O   UNK     0     -22.353   8.669  -4.000  0.00  0.00    -0.322 OA
HETATM   41  O   UNK     0     -22.403   8.455  -8.069  0.00  0.00    -0.189 OA
HETATM   42  C   UNK     0     -24.239   7.812  -5.681  0.00  0.00     0.151 A 
HETATM   43  C   UNK     0     -20.915   9.469   0.348  0.00  0.00     0.030 C 
HETATM   44  C   UNK     0     -21.981   9.095   1.735  0.00  0.00    -0.026 C 
HETATM   45  C   UNK     0     -25.157   7.491  -4.487  0.00  0.00     0.004 A 
HETATM   46  C   UNK     0     -24.625   7.779  -3.044  0.00  0.00     0.002 A 
HETATM   47  C   UNK     0     -23.271   8.348  -2.806  0.00  0.00     0.175 A 
HETATM   48  O   UNK     0     -24.723   7.545  -7.118  0.00  0.00    -0.188 OA
HETATM   49  C   UNK     0     -23.264   8.556   1.494  0.00  0.00    -0.005 C 
HETATM   50  C   UNK     0     -23.656   8.320  -0.064  0.00  0.00    -0.005 C 
HETATM   51  C   UNK     0     -24.856   7.775  -1.134  0.00  0.00    -0.024 C 
HETATM   52  C   UNK     0     -26.535   6.910  -4.775  0.00  0.00     0.033 C 
HETATM   53  O   UNK     0     -12.959  12.554  -3.673  0.00  0.00     0.000 OA
HETATM   54  C   UNK     0     -26.184   7.255  -0.551  0.00  0.00     0.031 C 
ENDROOT
BRANCH  16  55
HETATM   55  C   UNK     0     -17.328  10.329 -12.602  0.00  0.00     0.072 A 
HETATM   56  C   UNK     0     -17.899  11.481 -13.450  0.00  0.00     0.007 A 
HETATM   57  C   UNK     0     -18.383  11.214 -14.887  0.00  0.00     0.056 A 
HETATM   58  C   UNK     0     -18.296   9.793 -15.477  0.00  0.00     0.127 A 
HETATM   59  C   UNK     0     -17.726   8.641 -14.630  0.00  0.00     0.093 A 
HETATM   60  O   UNK     0     -18.780   9.526 -16.914  0.00  0.00    -0.193 OA
HETATM   61  C   UNK     0     -17.242   8.909 -13.192  0.00  0.00     0.053 A 
BRANCH  59  62
HETATM   62  O   UNK     0     -17.639   7.222 -15.219  0.00  0.00    -0.331 OA
HETATM   63  C   UNK     0     -18.901   6.343 -15.299  0.00  0.00     0.181 C 
ENDBRANCH  59  62
ENDBRANCH  16  55
BRANCH  28  64
HETATM   64  O   UNK     0     -16.695  11.240   1.042  0.00  0.00    -0.333 OA
HETATM   65  C   UNK     0     -17.371  12.331   1.891  0.00  0.00     0.181 C 
ENDBRANCH  28  64
TORSDOF 3
ENDMDL
MODEL 9
REMARK VINA RESULT:      -7.7     24.238     25.908
REMARK  3 active torsions:
REMARK  status: ('A' for Active; 'I' for Inactive)
REMARK    1  A    between atoms: C_16  and  C_21 
REMARK    2  A    between atoms: C_24  and  O_62 
REMARK    3  A    between atoms: C_34  and  O_35 
ROOT
HETATM    1  C   UNK     0      -9.811  14.574 -11.337  0.00  0.00     0.018 A 
HETATM    2  C   UNK     0     -10.355  14.372  -9.911  0.00  0.00     0.166 A 
HETATM    3  C   UNK     0      -8.508  15.365 -11.560  0.00  0.00     0.004 A 
HETATM    4  N   UNK     0      -9.596  14.962  -8.707  0.00  0.00    -0.347 N 
HETATM    5  C   UNK     0      -7.750  15.954 -10.356  0.00  0.00     0.024 A 
HETATM    6  C   UNK     0      -8.294  15.752  -8.930  0.00  0.00     0.099 A 
HETATM    7  C   UNK     0     -11.657  13.581  -9.688  0.00  0.00     0.281 C 
HETATM    8  O   UNK     0     -12.201  13.379  -8.261  0.00  0.00    -0.189 OA
HETATM    9  O   UNK     0     -11.443  13.969  -7.057  0.00  0.00    -0.196 OA
HETATM   10  C   UNK     0     -10.140  14.759  -7.281  0.00  0.00     0.265 A 
HETATM   11  C   UNK     0      -9.382  15.348  -6.076  0.00  0.00     0.231 A 
HETATM   12  O   UNK     0      -8.079  16.139  -6.298  0.00  0.00    -0.216 OA
HETATM   13  C   UNK     0     -13.719  12.201 -10.669  0.00  0.00     0.175 A 
HETATM   14  C   UNK     0     -14.263  11.999  -9.243  0.00  0.00     0.075 A 
HETATM   15  O   UNK     0     -12.416  12.992 -10.892  0.00  0.00    -0.336 OA
HETATM   16  C   UNK     0     -15.780  10.821 -11.650  0.00  0.00     0.065 A 
HETATM   17  O   UNK     0     -16.324  10.620 -10.224  0.00  0.00    -0.317 OA
HETATM   18  C   UNK     0     -14.477  11.612 -11.873  0.00  0.00    -0.008 A 
HETATM   19  C   UNK     0     -15.565  11.209  -9.019  0.00  0.00     0.072 A 
HETATM   20  C   UNK     0     -13.934  11.814 -13.300  0.00  0.00     0.030 C 
HETATM   21  O   UNK     0     -11.228  14.356  -4.426  0.00  0.00    -0.365 OA
HETATM   22  C   UNK     0      -9.925  15.147  -4.650  0.00  0.00     0.149 A 
HETATM   23  C   UNK     0     -11.771  14.154  -3.001  0.00  0.00     0.151 A 
HETATM   24  C   UNK     0     -11.013  14.743  -1.797  0.00  0.00     0.021 A 
HETATM   25  C   UNK     0      -9.166  15.736  -3.446  0.00  0.00     0.030 A 
HETATM   26  C   UNK     0      -9.710  15.534  -2.020  0.00  0.00     0.004 A 
HETATM   27  C   UNK     0     -13.074  13.363  -2.778  0.00  0.00     0.071 C 
HETATM   28  C   UNK     0     -13.618  13.161  -1.350  0.00  0.00     0.066 C 
HETATM   29  C   UNK     0     -15.680  11.781  -2.332  0.00  0.00     0.028 C 
HETATM   30  C   UNK     0     -14.921  12.370  -1.128  0.00  0.00    -0.025 C 
HETATM   31  C   UNK     0     -15.465  12.168   0.299  0.00  0.00     0.028 C 
HETATM   32  C   UNK     0      -7.864  16.526  -3.669  0.00  0.00     0.003 C 
HETATM   33  C   UNK     0     -16.109  11.007  -7.592  0.00  0.00    -0.021 C 
HETATM   34  C   UNK     0     -15.351  11.595  -6.389  0.00  0.00     0.028 C 
HETATM   35  C   UNK     0     -17.412  10.216  -7.370  0.00  0.00     0.048 C 
HETATM   36  C   UNK     0     -17.956  10.014  -5.943  0.00  0.00    -0.012 C 
HETATM   37  C   UNK     0     -17.197  10.603  -4.739  0.00  0.00     0.029 C 
HETATM   38  C   UNK     0     -19.258   9.223  -5.720  0.00  0.00     0.148 C 
HETATM   39  C   UNK     0     -19.802   9.021  -4.294  0.00  0.00     0.144 A 
HETATM   40  O   UNK     0     -19.043   9.610  -3.090  0.00  0.00    -0.322 OA
HETATM   41  O   UNK     0     -20.017   8.634  -6.924  0.00  0.00    -0.189 OA
HETATM   42  C   UNK     0     -21.105   8.230  -4.071  0.00  0.00     0.151 A 
HETATM   43  C   UNK     0     -16.771  11.379   0.560  0.00  0.00     0.030 C 
HETATM   44  C   UNK     0     -17.403  11.144   2.217  0.00  0.00    -0.026 C 
HETATM   45  C   UNK     0     -21.649   8.028  -2.645  0.00  0.00     0.004 A 
HETATM   46  C   UNK     0     -20.846   8.644  -1.451  0.00  0.00     0.002 A 
HETATM   47  C   UNK     0     -19.587   9.408  -1.663  0.00  0.00     0.175 A 
HETATM   48  O   UNK     0     -21.863   7.641  -5.275  0.00  0.00    -0.188 OA
HETATM   49  C   UNK     0     -18.599  10.416   2.403  0.00  0.00    -0.005 C 
HETATM   50  C   UNK     0     -19.304   9.847   1.056  0.00  0.00    -0.005 C 
HETATM   51  C   UNK     0     -20.615   8.969   0.431  0.00  0.00    -0.024 C 
HETATM   52  C   UNK     0     -22.940   7.240  -2.472  0.00  0.00     0.033 C 
HETATM   53  O   UNK     0     -10.613  14.605  -5.816  0.00  0.00     0.000 OA
HETATM   54  C   UNK     0     -21.663   8.410   1.412  0.00  0.00     0.031 C 
ENDROOT
BRANCH  16  55
HETATM   55  C   UNK     0     -16.539  10.232 -12.854  0.00  0.00     0.072 A 
HETATM   56  C   UNK     0     -16.278   8.779 -13.292  0.00  0.00     0.007 A 
HETATM   57  C   UNK     0     -17.037   8.190 -14.496  0.00  0.00     0.056 A 
HETATM   58  C   UNK     0     -18.057   9.054 -15.262  0.00  0.00     0.127 A 
HETATM   59  C   UNK     0     -18.317  10.507 -14.824  0.00  0.00     0.093 A 
HETATM   60  O   UNK     0     -18.815   8.465 -16.465  0.00  0.00    -0.193 OA
HETATM   61  C   UNK     0     -17.558  11.096 -13.620  0.00  0.00     0.053 A 
BRANCH  59  62
HETATM   62  O   UNK     0     -19.335  11.371 -15.589  0.00  0.00    -0.331 OA
HETATM   63  C   UNK     0     -18.935  12.036 -16.920  0.00  0.00     0.181 C 
ENDBRANCH  59  62
ENDBRANCH  16  55
BRANCH  28  64
HETATM   64  O   UNK     0     -12.859  13.750  -0.146  0.00  0.00    -0.333 OA
HETATM   65  C   UNK     0     -11.953  12.847   0.709  0.00  0.00     0.181 C 
ENDBRANCH  28  64
TORSDOF 3
ENDMDL
MODEL 10
REMARK VINA RESULT:      -7.7     13.203     14.667
REMARK  3 active torsions:
REMARK  status: ('A' for Active; 'I' for Inactive)
REMARK    1  A    between atoms: C_16  and  C_21 
REMARK    2  A    between atoms: C_24  and  O_62 
REMARK    3  A    between atoms: C_34  and  O_35 
ROOT
HETATM    1  C   UNK     0      12.080  -8.997   1.401  0.00  0.00     0.018 A 
HETATM    2  C   UNK     0      10.987 -10.082   1.401  0.00  0.00     0.166 A 
HETATM    3  C   UNK     0      13.539  -9.374   1.084  0.00  0.00     0.004 A 
HETATM    4  N   UNK     0      11.353 -11.544   1.084  0.00  0.00    -0.347 N 
HETATM    5  C   UNK     0      13.905 -10.835   0.767  0.00  0.00     0.024 A 
HETATM    6  C   UNK     0      12.812 -11.920   0.767  0.00  0.00     0.099 A 
HETATM    7  C   UNK     0       9.527  -9.704   1.718  0.00  0.00     0.281 C 
HETATM    8  O   UNK     0       8.434 -10.789   1.718  0.00  0.00    -0.189 OA
HETATM    9  O   UNK     0       8.800 -12.252   1.401  0.00  0.00    -0.196 OA
HETATM   10  C   UNK     0      10.260 -12.628   1.084  0.00  0.00     0.265 A 
HETATM   11  C   UNK     0      10.625 -14.091   0.767  0.00  0.00     0.231 A 
HETATM   12  O   UNK     0      12.085 -14.468   0.451  0.00  0.00    -0.216 OA
HETATM   13  C   UNK     0       7.701  -7.865   2.351  0.00  0.00     0.175 A 
HETATM   14  C   UNK     0       6.608  -8.950   2.351  0.00  0.00     0.075 A 
HETATM   15  O   UNK     0       9.161  -8.242   2.034  0.00  0.00    -0.336 OA
HETATM   16  C   UNK     0       5.876  -6.027   2.984  0.00  0.00     0.065 A 
HETATM   17  O   UNK     0       4.783  -7.112   2.984  0.00  0.00    -0.317 OA
HETATM   18  C   UNK     0       7.336  -6.404   2.668  0.00  0.00    -0.008 A 
HETATM   19  C   UNK     0       5.149  -8.574   2.668  0.00  0.00     0.072 A 
HETATM   20  C   UNK     0       8.428  -5.318   2.668  0.00  0.00     0.030 C 
HETATM   21  O   UNK     0       8.074 -14.799   1.084  0.00  0.00    -0.365 OA
HETATM   22  C   UNK     0       9.533 -15.175   0.767  0.00  0.00     0.149 A 
HETATM   23  C   UNK     0       6.982 -15.884   1.084  0.00  0.00     0.151 A 
HETATM   24  C   UNK     0       7.347 -17.345   0.767  0.00  0.00     0.021 A 
HETATM   25  C   UNK     0       9.900 -16.637   0.451  0.00  0.00     0.030 A 
HETATM   26  C   UNK     0       8.807 -17.722   0.451  0.00  0.00     0.004 A 
HETATM   27  C   UNK     0       5.522 -15.506   1.401  0.00  0.00     0.071 C 
HETATM   28  C   UNK     0       4.429 -16.592   1.401  0.00  0.00     0.066 C 
HETATM   29  C   UNK     0       2.603 -14.753   2.034  0.00  0.00     0.028 C 
HETATM   30  C   UNK     0       2.969 -16.215   1.718  0.00  0.00    -0.025 C 
HETATM   31  C   UNK     0       1.876 -17.300   1.718  0.00  0.00     0.028 C 
HETATM   32  C   UNK     0      11.358 -17.014   0.134  0.00  0.00     0.003 C 
HETATM   33  C   UNK     0       4.056  -9.659   2.668  0.00  0.00    -0.021 C 
HETATM   34  C   UNK     0       4.422 -11.121   2.351  0.00  0.00     0.028 C 
HETATM   35  C   UNK     0       2.597  -9.282   2.984  0.00  0.00     0.048 C 
HETATM   36  C   UNK     0       1.504 -10.367   2.984  0.00  0.00    -0.012 C 
HETATM   37  C   UNK     0       1.870 -11.829   2.668  0.00  0.00     0.029 C 
HETATM   38  C   UNK     0       0.044  -9.990   3.301  0.00  0.00     0.148 C 
HETATM   39  C   UNK     0      -1.048 -11.075   3.301  0.00  0.00     0.144 A 
HETATM   40  O   UNK     0      -0.682 -12.537   2.984  0.00  0.00    -0.322 OA
HETATM   41  O   UNK     0      -0.322  -8.528   3.618  0.00  0.00    -0.189 OA
HETATM   42  C   UNK     0      -2.508 -10.698   3.618  0.00  0.00     0.151 A 
HETATM   43  C   UNK     0       0.399 -16.957   2.031  0.00  0.00     0.030 C 
HETATM   44  C   UNK     0      -0.871 -18.218   2.031  0.00  0.00    -0.026 C 
HETATM   45  C   UNK     0      -3.601 -11.783   3.618  0.00  0.00     0.004 A 
HETATM   46  C   UNK     0      -3.184 -13.255   3.291  0.00  0.00     0.002 A 
HETATM   47  C   UNK     0      -1.775 -13.622   2.984  0.00  0.00     0.175 A 
HETATM   48  O   UNK     0      -2.874  -9.237   3.935  0.00  0.00    -0.188 OA
HETATM   49  C   UNK     0      -2.204 -17.854   2.324  0.00  0.00    -0.005 C 
HETATM   50  C   UNK     0      -2.461 -16.282   2.641  0.00  0.00    -0.005 C 
HETATM   51  C   UNK     0      -3.622 -15.113   3.044  0.00  0.00    -0.024 C 
HETATM   52  C   UNK     0      -5.029 -11.364   3.937  0.00  0.00     0.033 C 
HETATM   53  O   UNK     0       9.228 -13.781   1.062  0.00  0.00     0.000 OA
HETATM   54  C   UNK     0      -5.087 -15.556   3.220  0.00  0.00     0.031 C 
ENDROOT
BRANCH  16  55
HETATM   55  C   UNK     0       5.510  -4.565   3.301  0.00  0.00     0.072 A 
HETATM   56  C   UNK     0       5.541  -4.061   4.756  0.00  0.00     0.007 A 
HETATM   57  C   UNK     0       5.175  -2.599   5.073  0.00  0.00     0.056 A 
HETATM   58  C   UNK     0       4.777  -1.640   3.935  0.00  0.00     0.127 A 
HETATM   59  C   UNK     0       4.745  -2.144   2.480  0.00  0.00     0.093 A 
HETATM   60  O   UNK     0       4.410  -0.179   4.252  0.00  0.00    -0.193 OA
HETATM   61  C   UNK     0       5.111  -3.606   2.163  0.00  0.00     0.053 A 
BRANCH  59  62
HETATM   62  O   UNK     0       4.347  -1.187   1.342  0.00  0.00    -0.331 OA
HETATM   63  C   UNK     0       5.333  -0.102   0.868  0.00  0.00     0.181 C 
ENDBRANCH  59  62
ENDBRANCH  16  55
BRANCH  28  64
HETATM   64  O   UNK     0       4.795 -18.054   1.084  0.00  0.00    -0.333 OA
HETATM   65  C   UNK     0       4.797 -19.107   2.206  0.00  0.00     0.181 C 
ENDBRANCH  28  64
TORSDOF 3
ENDMDL
