MODEL 1
REMARK VINA RESULT:      -5.5      0.000      0.000
REMARK  2 active torsions:
REMARK  status: ('A' for Active; 'I' for Inactive)
REMARK    1  A    between atoms: S_1  and  O_7 
REMARK    2  A    between atoms: O_7  and  C_18 
ROOT
HETATM    1  O   UNK     0      -2.519   1.278  -8.074  0.00  0.00    -0.342 OA
HETATM    2  O   UNK     0      -0.444   3.914 -10.138  0.00  0.00     0.000 OA
HETATM    3  O   UNK     0      -2.413   3.754  -8.144  0.00  0.00    -0.329 OA
HETATM    4  O   UNK     0      -0.412  -0.672 -10.239  0.00  0.00    -0.343 OA
HETATM    5  O   UNK     0       1.144   0.459 -11.801  0.00  0.00    -0.344 OA
HETATM    6  C   UNK     0      -1.477   1.674  -9.124  0.00  0.00     0.202 A 
HETATM    7  C   UNK     0      -0.575   0.839 -10.052  0.00  0.00     0.187 A 
HETATM    8  C   UNK     0      -1.411   3.212  -9.168  0.00  0.00     0.185 A 
HETATM    9  C   UNK     0       0.393   1.541 -11.022  0.00  0.00     0.168 A 
HETATM   10  C   UNK     0       0.458   3.079 -11.065  0.00  0.00     0.024 A 
HETATM   11  C   UNK     0      -3.095   2.560  -7.470  0.00  0.00     0.187 A 
HETATM   12  C   UNK     0       0.648  -0.907 -11.318  0.00  0.00     0.186 A 
HETATM   13  C   UNK     0      -1.346   4.750  -9.211  0.00  0.00     0.143 A 
HETATM   14  C   UNK     0      -3.931   3.526  -6.609  0.00  0.00     0.061 C 
HETATM   15  C   UNK     0      -4.008   1.719  -6.558  0.00  0.00     0.061 C 
HETATM   16  C   UNK     0       0.470  -2.428 -11.160  0.00  0.00     0.061 C 
HETATM   17  C   UNK     0       1.607  -1.602 -12.301  0.00  0.00     0.061 C 
ENDROOT
BRANCH  13  18
HETATM   18  O   UNK     0      -2.248   5.586  -8.283  0.00  0.00    -0.212 OA
BRANCH  18  19
HETATM   19  S   UNK     0      -2.609   7.035  -8.661  0.00  0.00     0.406 S 
HETATM   20  O   UNK     0      -3.229   7.244  -7.266  0.00  0.00    -0.172 OA
HETATM   21  O   UNK     0      -1.990   6.826 -10.056  0.00  0.00    -0.172 OA
HETATM   22  N   UNK     0      -2.970   8.483  -9.039  0.00  0.00    -0.021 N 
ENDBRANCH  18  19
ENDBRANCH  13  18
TORSDOF 2
ENDMDL
MODEL 2
REMARK VINA RESULT:      -5.5     14.365     16.214
REMARK  2 active torsions:
REMARK  status: ('A' for Active; 'I' for Inactive)
REMARK    1  A    between atoms: S_1  and  O_7 
REMARK    2  A    between atoms: O_7  and  C_18 
ROOT
HETATM    1  O   UNK     0       5.523  -8.323  -2.421  0.00  0.00    -0.342 OA
HETATM    2  O   UNK     0       5.588  -7.795   1.482  0.00  0.00     0.000 OA
HETATM    3  O   UNK     0       5.109  -6.403  -0.908  0.00  0.00    -0.329 OA
HETATM    4  O   UNK     0       6.414 -11.527  -1.056  0.00  0.00    -0.343 OA
HETATM    5  O   UNK     0       6.613 -11.817   1.397  0.00  0.00    -0.344 OA
HETATM    6  C   UNK     0       5.721  -8.807  -0.982  0.00  0.00     0.202 A 
HETATM    7  C   UNK     0       6.103 -10.180  -0.398  0.00  0.00     0.187 A 
HETATM    8  C   UNK     0       5.464  -7.615  -0.043  0.00  0.00     0.185 A 
HETATM    9  C   UNK     0       6.227 -10.360   1.127  0.00  0.00     0.168 A 
HETATM   10  C   UNK     0       5.969  -9.168   2.067  0.00  0.00     0.024 A 
HETATM   11  C   UNK     0       5.146  -6.840  -2.375  0.00  0.00     0.187 A 
HETATM   12  C   UNK     0       6.729 -12.536   0.051  0.00  0.00     0.186 A 
HETATM   13  C   UNK     0       5.207  -6.422   0.897  0.00  0.00     0.143 A 
HETATM   14  C   UNK     0       4.759  -5.414  -2.808  0.00  0.00     0.061 C 
HETATM   15  C   UNK     0       5.061  -6.815  -3.913  0.00  0.00     0.061 C 
HETATM   16  C   UNK     0       6.954 -13.629  -1.011  0.00  0.00     0.061 C 
HETATM   17  C   UNK     0       7.100 -13.840   0.781  0.00  0.00     0.061 C 
ENDROOT
BRANCH  13  18
HETATM   18  O   UNK     0       4.825  -5.049   0.313  0.00  0.00    -0.212 OA
BRANCH  18  19
HETATM   19  S   UNK     0       4.397  -3.905   1.250  0.00  0.00     0.406 S 
HETATM   20  O   UNK     0       3.636  -3.239   0.089  0.00  0.00    -0.172 OA
HETATM   21  O   UNK     0       5.159  -4.571   2.411  0.00  0.00    -0.172 OA
HETATM   22  N   UNK     0       3.970  -2.761   2.188  0.00  0.00    -0.021 N 
ENDBRANCH  18  19
ENDBRANCH  13  18
TORSDOF 2
ENDMDL
MODEL 3
REMARK VINA RESULT:      -5.2     24.294     26.646
REMARK  2 active torsions:
REMARK  status: ('A' for Active; 'I' for Inactive)
REMARK    1  A    between atoms: S_1  and  O_7 
REMARK    2  A    between atoms: O_7  and  C_18 
ROOT
HETATM    1  O   UNK     0     -20.042   0.740   6.921  0.00  0.00    -0.342 OA
HETATM    2  O   UNK     0     -20.994   3.217   9.832  0.00  0.00     0.000 OA
HETATM    3  O   UNK     0     -20.733   3.118   7.039  0.00  0.00    -0.329 OA
HETATM    4  O   UNK     0     -19.739  -1.194   9.937  0.00  0.00    -0.343 OA
HETATM    5  O   UNK     0     -20.221  -0.150  12.132  0.00  0.00    -0.344 OA
HETATM    6  C   UNK     0     -20.265   1.092   8.395  0.00  0.00     0.202 A 
HETATM    7  C   UNK     0     -20.136   0.263   9.686  0.00  0.00     0.187 A 
HETATM    8  C   UNK     0     -20.695   2.569   8.468  0.00  0.00     0.185 A 
HETATM    9  C   UNK     0     -20.435   0.912  11.051  0.00  0.00     0.168 A 
HETATM   10  C   UNK     0     -20.865   2.389  11.123  0.00  0.00     0.024 A 
HETATM   11  C   UNK     0     -20.330   1.989   6.086  0.00  0.00     0.187 A 
HETATM   12  C   UNK     0     -19.792  -1.449  11.445  0.00  0.00     0.186 A 
HETATM   13  C   UNK     0     -21.124   4.046   8.540  0.00  0.00     0.143 A 
HETATM   14  C   UNK     0     -20.503   2.941   4.887  0.00  0.00     0.061 C 
HETATM   15  C   UNK     0     -19.998   1.206   4.802  0.00  0.00     0.061 C 
HETATM   16  C   UNK     0     -19.354  -2.907  11.213  0.00  0.00     0.061 C 
HETATM   17  C   UNK     0     -19.707  -2.145  12.816  0.00  0.00     0.061 C 
ENDROOT
BRANCH  13  18
HETATM   18  O   UNK     0     -21.254   4.875   7.248  0.00  0.00    -0.212 OA
BRANCH  18  19
HETATM   19  S   UNK     0     -21.209   6.413   7.312  0.00  0.00     0.406 S 
HETATM   20  O   UNK     0     -21.743   6.369   8.756  0.00  0.00    -0.172 OA
HETATM   21  O   UNK     0     -20.676   6.458   5.868  0.00  0.00    -0.172 OA
HETATM   22  N   UNK     0     -21.165   7.951   7.376  0.00  0.00    -0.021 N 
ENDBRANCH  18  19
ENDBRANCH  13  18
TORSDOF 2
ENDMDL
MODEL 4
REMARK VINA RESULT:      -5.2     24.587     27.062
REMARK  2 active torsions:
REMARK  status: ('A' for Active; 'I' for Inactive)
REMARK    1  A    between atoms: S_1  and  O_7 
REMARK    2  A    between atoms: O_7  and  C_18 
ROOT
HETATM    1  O   UNK     0     -21.039   1.450  11.083  0.00  0.00    -0.342 OA
HETATM    2  O   UNK     0     -19.446  -0.914   8.364  0.00  0.00     0.000 OA
HETATM    3  O   UNK     0     -20.753   1.557   8.622  0.00  0.00    -0.329 OA
HETATM    4  O   UNK     0     -19.827  -1.399  12.910  0.00  0.00    -0.343 OA
HETATM    5  O   UNK     0     -18.705  -3.255  11.711  0.00  0.00    -0.344 OA
HETATM    6  C   UNK     0     -20.320   0.173  10.637  0.00  0.00     0.202 A 
HETATM    7  C   UNK     0     -19.801  -1.047  11.421  0.00  0.00     0.187 A 
HETATM    8  C   UNK     0     -20.143   0.239   9.110  0.00  0.00     0.185 A 
HETATM    9  C   UNK     0     -19.104  -2.201  10.675  0.00  0.00     0.168 A 
HETATM   10  C   UNK     0     -18.926  -2.134   9.147  0.00  0.00     0.024 A 
HETATM   11  C   UNK     0     -21.306   2.302   9.841  0.00  0.00     0.187 A 
HETATM   12  C   UNK     0     -19.151  -2.761  13.089  0.00  0.00     0.186 A 
HETATM   13  C   UNK     0     -19.965   0.306   7.581  0.00  0.00     0.143 A 
HETATM   14  C   UNK     0     -21.770   3.451   8.925  0.00  0.00     0.061 C 
HETATM   15  C   UNK     0     -21.979   3.372  10.721  0.00  0.00     0.061 C 
HETATM   16  C   UNK     0     -19.400  -2.684  14.607  0.00  0.00     0.061 C 
HETATM   17  C   UNK     0     -18.581  -4.040  13.731  0.00  0.00     0.061 C 
ENDROOT
BRANCH  13  18
HETATM   18  O   UNK     0     -20.485   1.527   6.798  0.00  0.00    -0.212 OA
BRANCH  18  19
HETATM   19  S   UNK     0     -19.767   1.980   5.512  0.00  0.00     0.406 S 
HETATM   20  O   UNK     0     -18.800   0.787   5.632  0.00  0.00    -0.172 OA
HETATM   21  O   UNK     0     -20.734   3.172   5.393  0.00  0.00    -0.172 OA
HETATM   22  N   UNK     0     -19.050   2.432   4.227  0.00  0.00    -0.021 N 
ENDBRANCH  18  19
ENDBRANCH  13  18
TORSDOF 2
ENDMDL
MODEL 5
REMARK VINA RESULT:      -5.0     12.717     14.613
REMARK  2 active torsions:
REMARK  status: ('A' for Active; 'I' for Inactive)
REMARK    1  A    between atoms: S_1  and  O_7 
REMARK    2  A    between atoms: O_7  and  C_18 
ROOT
HETATM    1  O   UNK     0       4.361  -9.518  -1.126  0.00  0.00    -0.342 OA
HETATM    2  O   UNK     0       5.030  -5.735  -1.994  0.00  0.00     0.000 OA
HETATM    3  O   UNK     0       5.374  -7.601   0.076  0.00  0.00    -0.329 OA
HETATM    4  O   UNK     0       3.107  -9.086  -4.467  0.00  0.00    -0.343 OA
HETATM    5  O   UNK     0       3.254  -6.871  -5.569  0.00  0.00    -0.344 OA
HETATM    6  C   UNK     0       4.309  -8.302  -2.054  0.00  0.00     0.202 A 
HETATM    7  C   UNK     0       3.772  -8.117  -3.486  0.00  0.00     0.187 A 
HETATM    8  C   UNK     0       4.938  -7.111  -1.309  0.00  0.00     0.185 A 
HETATM    9  C   UNK     0       3.864  -6.741  -4.171  0.00  0.00     0.168 A 
HETATM   10  C   UNK     0       4.493  -5.550  -3.424  0.00  0.00     0.024 A 
HETATM   11  C   UNK     0       5.017  -9.086   0.187  0.00  0.00     0.187 A 
HETATM   12  C   UNK     0       2.787  -8.318  -5.752  0.00  0.00     0.186 A 
HETATM   13  C   UNK     0       5.567  -5.920  -0.562  0.00  0.00     0.143 A 
HETATM   14  C   UNK     0       5.595  -9.115   1.615  0.00  0.00     0.061 C 
HETATM   15  C   UNK     0       4.856 -10.515   0.738  0.00  0.00     0.061 C 
HETATM   16  C   UNK     0       2.189  -9.596  -6.367  0.00  0.00     0.061 C 
HETATM   17  C   UNK     0       2.296  -7.979  -7.172  0.00  0.00     0.061 C 
ENDROOT
BRANCH  13  18
HETATM   18  O   UNK     0       6.105  -6.105   0.870  0.00  0.00    -0.212 OA
BRANCH  18  19
HETATM   19  S   UNK     0       6.606  -4.887   1.668  0.00  0.00     0.406 S 
HETATM   20  O   UNK     0       7.850  -5.684   2.103  0.00  0.00    -0.172 OA
HETATM   21  O   UNK     0       5.362  -4.090   1.232  0.00  0.00    -0.172 OA
HETATM   22  N   UNK     0       7.106  -3.669   2.465  0.00  0.00    -0.021 N 
ENDBRANCH  18  19
ENDBRANCH  13  18
TORSDOF 2
ENDMDL
MODEL 6
REMARK VINA RESULT:      -4.7      4.591      6.915
REMARK  2 active torsions:
REMARK  status: ('A' for Active; 'I' for Inactive)
REMARK    1  A    between atoms: S_1  and  O_7 
REMARK    2  A    between atoms: O_7  and  C_18 
ROOT
HETATM    1  O   UNK     0      -0.172   8.628  -9.373  0.00  0.00    -0.342 OA
HETATM    2  O   UNK     0       1.088   5.215  -7.864  0.00  0.00     0.000 OA
HETATM    3  O   UNK     0      -1.277   6.613  -8.443  0.00  0.00    -0.329 OA
HETATM    4  O   UNK     0       3.416   8.801  -9.527  0.00  0.00    -0.343 OA
HETATM    5  O   UNK     0       4.784   6.906  -8.703  0.00  0.00    -0.344 OA
HETATM    6  C   UNK     0       0.923   7.644  -8.953  0.00  0.00     0.202 A 
HETATM    7  C   UNK     0       2.460   7.718  -9.019  0.00  0.00     0.187 A 
HETATM    8  C   UNK     0       0.237   6.393  -8.375  0.00  0.00     0.185 A 
HETATM    9  C   UNK     0       3.311   6.541  -8.507  0.00  0.00     0.168 A 
HETATM   10  C   UNK     0       2.624   5.289  -7.929  0.00  0.00     0.024 A 
HETATM   11  C   UNK     0      -1.528   7.993  -9.058  0.00  0.00     0.187 A 
HETATM   12  C   UNK     0       4.849   8.301  -9.332  0.00  0.00     0.186 A 
HETATM   13  C   UNK     0      -0.449   5.141  -7.797  0.00  0.00     0.143 A 
HETATM   14  C   UNK     0      -3.047   7.773  -8.927  0.00  0.00     0.061 C 
HETATM   15  C   UNK     0      -2.240   9.244  -9.606  0.00  0.00     0.061 C 
HETATM   16  C   UNK     0       5.388   9.612  -9.934  0.00  0.00     0.061 C 
HETATM   17  C   UNK     0       6.387   8.228  -9.332  0.00  0.00     0.061 C 
ENDROOT
BRANCH  13  18
HETATM   18  O   UNK     0      -1.986   5.067  -7.731  0.00  0.00    -0.212 OA
BRANCH  18  19
HETATM   19  S   UNK     0      -2.688   3.699  -7.630  0.00  0.00     0.406 S 
HETATM   20  O   UNK     0      -1.554   3.057  -8.452  0.00  0.00    -0.172 OA
HETATM   21  O   UNK     0      -3.821   4.341  -6.809  0.00  0.00    -0.172 OA
HETATM   22  N   UNK     0      -3.389   2.333  -7.529  0.00  0.00    -0.021 N 
ENDBRANCH  18  19
ENDBRANCH  13  18
TORSDOF 2
ENDMDL
MODEL 7
REMARK VINA RESULT:      -4.6     13.925     16.229
REMARK  2 active torsions:
REMARK  status: ('A' for Active; 'I' for Inactive)
REMARK    1  A    between atoms: S_1  and  O_7 
REMARK    2  A    between atoms: O_7  and  C_18 
ROOT
HETATM    1  O   UNK     0       3.899 -10.863  -1.604  0.00  0.00    -0.342 OA
HETATM    2  O   UNK     0       5.791  -7.409  -1.537  0.00  0.00     0.000 OA
HETATM    3  O   UNK     0       5.773  -9.920  -0.282  0.00  0.00    -0.329 OA
HETATM    4  O   UNK     0       2.310  -8.873  -4.141  0.00  0.00    -0.343 OA
HETATM    5  O   UNK     0       3.087  -6.559  -4.569  0.00  0.00    -0.344 OA
HETATM    6  C   UNK     0       4.146  -9.433  -2.093  0.00  0.00     0.202 A 
HETATM    7  C   UNK     0       3.465  -8.580  -3.180  0.00  0.00     0.187 A 
HETATM    8  C   UNK     0       5.309  -8.847  -1.272  0.00  0.00     0.185 A 
HETATM    9  C   UNK     0       3.947  -7.142  -3.445  0.00  0.00     0.168 A 
HETATM   10  C   UNK     0       5.111  -6.556  -2.624  0.00  0.00     0.024 A 
HETATM   11  C   UNK     0       4.902 -11.163  -0.488  0.00  0.00     0.187 A 
HETATM   12  C   UNK     0       2.077  -7.626  -4.998  0.00  0.00     0.186 A 
HETATM   13  C   UNK     0       6.472  -8.261  -0.450  0.00  0.00     0.143 A 
HETATM   14  C   UNK     0       5.679 -11.889   0.627  0.00  0.00     0.061 C 
HETATM   15  C   UNK     0       4.312 -12.577  -0.338  0.00  0.00     0.061 C 
HETATM   16  C   UNK     0       0.932  -8.347  -5.734  0.00  0.00     0.061 C 
HETATM   17  C   UNK     0       1.499  -6.656  -6.046  0.00  0.00     0.061 C 
ENDROOT
BRANCH  13  18
HETATM   18  O   UNK     0       7.154  -9.114   0.637  0.00  0.00    -0.212 OA
BRANCH  18  19
HETATM   19  S   UNK     0       8.166  -8.467   1.601  0.00  0.00     0.406 S 
HETATM   20  O   UNK     0       9.017  -9.750   1.568  0.00  0.00    -0.172 OA
HETATM   21  O   UNK     0       7.315  -7.184   1.634  0.00  0.00    -0.172 OA
HETATM   22  N   UNK     0       9.178  -7.821   2.564  0.00  0.00    -0.021 N 
ENDBRANCH  18  19
ENDBRANCH  13  18
TORSDOF 2
ENDMDL
MODEL 8
REMARK VINA RESULT:      -4.5     19.693     21.032
REMARK  2 active torsions:
REMARK  status: ('A' for Active; 'I' for Inactive)
REMARK    1  A    between atoms: S_1  and  O_7 
REMARK    2  A    between atoms: O_7  and  C_18 
ROOT
HETATM    1  O   UNK     0      -1.557   5.862  11.788  0.00  0.00    -0.342 OA
HETATM    2  O   UNK     0      -0.352   9.369  10.460  0.00  0.00     0.000 OA
HETATM    3  O   UNK     0      -2.461   8.169  11.871  0.00  0.00    -0.329 OA
HETATM    4  O   UNK     0       1.574   5.218  10.142  0.00  0.00    -0.343 OA
HETATM    5  O   UNK     0       2.828   7.079   9.092  0.00  0.00    -0.344 OA
HETATM    6  C   UNK     0      -0.570   6.780  11.062  0.00  0.00     0.202 A 
HETATM    7  C   UNK     0       0.772   6.504  10.357  0.00  0.00     0.187 A 
HETATM    8  C   UNK     0      -1.131   8.213  11.113  0.00  0.00     0.185 A 
HETATM    9  C   UNK     0       1.551   7.661   9.704  0.00  0.00     0.168 A 
HETATM   10  C   UNK     0       0.989   9.094   9.756  0.00  0.00     0.024 A 
HETATM   11  C   UNK     0      -2.723   6.719  12.286  0.00  0.00     0.187 A 
HETATM   12  C   UNK     0       2.842   5.573   9.362  0.00  0.00     0.186 A 
HETATM   13  C   UNK     0      -1.693   9.646  11.165  0.00  0.00     0.143 A 
HETATM   14  C   UNK     0      -4.044   7.149  12.951  0.00  0.00     0.061 C 
HETATM   15  C   UNK     0      -3.384   5.465  12.891  0.00  0.00     0.061 C 
HETATM   16  C   UNK     0       3.273   4.094   9.392  0.00  0.00     0.061 C 
HETATM   17  C   UNK     0       4.189   5.454   8.625  0.00  0.00     0.061 C 
ENDROOT
BRANCH  13  18
HETATM   18  O   UNK     0      -3.034   9.922  11.870  0.00  0.00    -0.212 OA
BRANCH  18  19
HETATM   19  S   UNK     0      -3.749  11.271  11.665  0.00  0.00     0.406 S 
HETATM   20  O   UNK     0      -2.900  11.892  12.790  0.00  0.00    -0.172 OA
HETATM   21  O   UNK     0      -4.598  10.650  10.540  0.00  0.00    -0.172 OA
HETATM   22  N   UNK     0      -4.463  12.619  11.459  0.00  0.00    -0.021 N 
ENDBRANCH  18  19
ENDBRANCH  13  18
TORSDOF 2
ENDMDL
MODEL 9
REMARK VINA RESULT:      -4.4      4.001      6.870
REMARK  2 active torsions:
REMARK  status: ('A' for Active; 'I' for Inactive)
REMARK    1  A    between atoms: S_1  and  O_7 
REMARK    2  A    between atoms: O_7  and  C_18 
ROOT
HETATM    1  O   UNK     0      -3.051   7.156 -10.254  0.00  0.00    -0.342 OA
HETATM    2  O   UNK     0      -0.818   4.122  -9.103  0.00  0.00     0.000 OA
HETATM    3  O   UNK     0      -3.252   4.688 -10.382  0.00  0.00    -0.329 OA
HETATM    4  O   UNK     0      -0.163   8.646  -8.717  0.00  0.00    -0.343 OA
HETATM    5  O   UNK     0       1.627   7.206  -7.786  0.00  0.00    -0.344 OA
HETATM    6  C   UNK     0      -1.805   6.548  -9.602  0.00  0.00     0.202 A 
HETATM    7  C   UNK     0      -0.568   7.187  -8.944  0.00  0.00     0.187 A 
HETATM    8  C   UNK     0      -1.930   5.016  -9.682  0.00  0.00     0.185 A 
HETATM    9  C   UNK     0       0.544   6.293  -8.365  0.00  0.00     0.168 A 
HETATM   10  C   UNK     0       0.419   4.760  -8.445  0.00  0.00     0.024 A 
HETATM   11  C   UNK     0      -3.942   6.009 -10.734  0.00  0.00     0.187 A 
HETATM   12  C   UNK     0       1.191   8.658  -8.003  0.00  0.00     0.186 A 
HETATM   13  C   UNK     0      -2.055   3.483  -9.762  0.00  0.00     0.143 A 
HETATM   14  C   UNK     0      -5.114   5.227 -11.359  0.00  0.00     0.061 C 
HETATM   15  C   UNK     0      -4.967   7.029 -11.265  0.00  0.00     0.061 C 
HETATM   16  C   UNK     0       1.174  10.198  -7.998  0.00  0.00     0.061 C 
HETATM   17  C   UNK     0       2.481   9.146  -7.318  0.00  0.00     0.061 C 
ENDROOT
BRANCH  13  18
HETATM   18  O   UNK     0      -3.293   2.844 -10.420  0.00  0.00    -0.212 OA
BRANCH  18  19
HETATM   19  S   UNK     0      -3.169   1.487 -11.138  0.00  0.00     0.406 S 
HETATM   20  O   UNK     0      -1.691   1.398 -10.716  0.00  0.00    -0.172 OA
HETATM   21  O   UNK     0      -4.648   1.576 -11.560  0.00  0.00    -0.172 OA
HETATM   22  N   UNK     0      -3.046   0.131 -11.855  0.00  0.00    -0.021 N 
ENDBRANCH  18  19
ENDBRANCH  13  18
TORSDOF 2
ENDMDL
MODEL 10
REMARK VINA RESULT:      -4.3     17.660     20.192
REMARK  2 active torsions:
REMARK  status: ('A' for Active; 'I' for Inactive)
REMARK    1  A    between atoms: S_1  and  O_7 
REMARK    2  A    between atoms: O_7  and  C_18 
ROOT
HETATM    1  O   UNK     0       6.166 -12.377  -1.249  0.00  0.00    -0.342 OA
HETATM    2  O   UNK     0       8.202 -10.380   1.468  0.00  0.00     0.000 OA
HETATM    3  O   UNK     0       7.752 -12.996   0.553  0.00  0.00    -0.329 OA
HETATM    4  O   UNK     0       5.303  -8.928  -1.777  0.00  0.00    -0.343 OA
HETATM    5  O   UNK     0       6.294  -7.168  -0.341  0.00  0.00    -0.344 OA
HETATM    6  C   UNK     0       6.601 -11.090  -0.544  0.00  0.00     0.202 A 
HETATM    7  C   UNK     0       6.231  -9.612  -0.770  0.00  0.00     0.187 A 
HETATM    8  C   UNK     0       7.586 -11.474   0.575  0.00  0.00     0.185 A 
HETATM    9  C   UNK     0       6.847  -8.518   0.122  0.00  0.00     0.168 A 
HETATM   10  C   UNK     0       7.833  -8.903   1.242  0.00  0.00     0.024 A 
HETATM   11  C   UNK     0       6.876 -13.552  -0.572  0.00  0.00     0.187 A 
HETATM   12  C   UNK     0       5.342  -7.420  -1.513  0.00  0.00     0.186 A 
HETATM   13  C   UNK     0       8.572 -11.858   1.695  0.00  0.00     0.143 A 
HETATM   14  C   UNK     0       7.340 -14.979  -0.226  0.00  0.00     0.061 C 
HETATM   15  C   UNK     0       6.181 -14.528  -1.541  0.00  0.00     0.061 C 
HETATM   16  C   UNK     0       4.347  -7.193  -2.666  0.00  0.00     0.061 C 
HETATM   17  C   UNK     0       5.071  -5.908  -1.617  0.00  0.00     0.061 C 
ENDROOT
BRANCH  13  18
HETATM   18  O   UNK     0       8.941 -13.336   1.921  0.00  0.00    -0.212 OA
BRANCH  18  19
HETATM   19  S   UNK     0      10.303 -13.703   2.540  0.00  0.00     0.406 S 
HETATM   20  O   UNK     0      10.345 -12.341   3.258  0.00  0.00    -0.172 OA
HETATM   21  O   UNK     0      10.262 -15.066   1.823  0.00  0.00    -0.172 OA
HETATM   22  N   UNK     0      11.664 -14.071   3.158  0.00  0.00    -0.021 N 
ENDBRANCH  18  19
ENDBRANCH  13  18
TORSDOF 2
ENDMDL
