MODEL 1
REMARK VINA RESULT:      -7.6      0.000      0.000
REMARK  9 active torsions:
REMARK  status: ('A' for Active; 'I' for Inactive)
REMARK    1  A    between atoms: C_3  and  C_21 
REMARK    2  A    between atoms: C_4  and  C_14 
REMARK    3  A    between atoms: C_7  and  N_9 
REMARK       I    between atoms: N_9  and  C_10 
REMARK    4  A    between atoms: C_10  and  C_13 
REMARK    5  A    between atoms: C_13  and  C_15 
REMARK    6  A    between atoms: C_13  and  N_20 
REMARK    7  A    between atoms: C_14  and  S_24 
REMARK    8  A    between atoms: N_20  and  O_35 
REMARK    9  A    between atoms: S_24  and  C_25 
ROOT
HETATM    1  C   UNK     0       9.931  -8.768 -27.839  0.00  0.00     0.308 A 
HETATM    2  N   UNK     0      10.139  -9.362 -29.159  0.00  0.00    -0.297 N 
HETATM    3  C   UNK     0      10.539  -8.423 -30.372  0.00  0.00     0.121 A 
HETATM    4  C   UNK     0      10.704  -6.927 -30.166  0.00  0.00    -0.002 A 
HETATM    5  C   UNK     0      10.496  -6.333 -28.846  0.00  0.00     0.065 A 
HETATM    6  S   UNK     0      10.112  -7.203 -27.662  0.00  0.00    -0.194 SA
HETATM    7  C   UNK     0       9.608 -10.159 -27.263  0.00  0.00     0.125 A 
HETATM    8  C   UNK     0       9.816 -10.754 -28.584  0.00  0.00     0.211 A 
HETATM    9  O   UNK     0       9.651 -12.249 -28.790  0.00  0.00    -0.170 OA
ENDROOT
BRANCH   7  10
HETATM   10  N   UNK     0       9.224 -11.029 -26.079  0.00  0.00    -0.217 NA
HETATM   11  C   UNK     0       7.757 -11.338 -25.835  0.00  0.00     0.234 C 
HETATM   12  O   UNK     0       6.729 -10.804 -26.728  0.00  0.00    -0.167 OA
BRANCH  11  13
HETATM   13  C   UNK     0       7.373 -12.208 -24.651  0.00  0.00     0.165 C 
BRANCH  13  14
HETATM   14  C   UNK     0       6.630 -13.590 -24.876  0.00  0.00     0.091 A 
HETATM   15  C   UNK     0       7.576 -14.777 -25.137  0.00  0.00     0.108 A 
HETATM   16  S   UNK     0       6.676 -16.012 -25.328  0.00  0.00    -0.072 SA
HETATM   17  C   UNK     0       5.129 -15.598 -25.185  0.00  0.00     0.456 A 
HETATM   18  N   UNK     0       5.100 -14.084 -24.902  0.00  0.00    -0.229 NA
HETATM   19  N   UNK     0       3.916 -16.537 -25.307  0.00  0.00     0.656 N 
ENDBRANCH  13  14
BRANCH  13  20
HETATM   20  N   UNK     0       7.717 -11.737 -23.142  0.00  0.00    -0.126 NA
BRANCH  20  21
HETATM   21  O   UNK     0       9.180 -11.629 -22.671  0.00  0.00    -0.234 OA
HETATM   22  C   UNK     0       9.565 -11.999 -21.227  0.00  0.00     0.211 C 
ENDBRANCH  20  21
ENDBRANCH  13  20
ENDBRANCH  11  13
ENDBRANCH   7  10
BRANCH   3  23
HETATM   23  C   UNK     0      10.758  -9.049 -31.762  0.00  0.00     0.227 C 
HETATM   24  O   UNK     0       9.583  -9.436 -32.711  0.00  0.00    -0.643 OA
HETATM   25  O   UNK     0      12.239  -9.316 -32.262  0.00  0.00    -0.643 OA
ENDBRANCH   3  23
BRANCH   4  26
HETATM   26  C   UNK     0      11.099  -6.089 -31.420  0.00  0.00     0.089 C 
BRANCH  26  27
HETATM   27  S   UNK     0      12.573  -5.762 -31.584  0.00  0.00    -0.071 SA
BRANCH  27  28
HETATM   28  C   UNK     0      13.069  -5.239 -32.920  0.00  0.00     0.190 A 
HETATM   29  N   UNK     0      13.138  -6.170 -34.146  0.00  0.00    -0.192 NA
HETATM   30  C   UNK     0      13.634  -5.647 -35.483  0.00  0.00     0.260 A 
HETATM   31  C   UNK     0      14.088  -4.135 -35.637  0.00  0.00     0.274 A 
HETATM   32  O   UNK     0      13.704  -6.577 -36.708  0.00  0.00    -0.165 OA
HETATM   33  N   UNK     0      14.019  -3.205 -34.411  0.00  0.00    -0.136 NA
HETATM   34  O   UNK     0      14.584  -3.613 -36.974  0.00  0.00    -0.164 OA
HETATM   35  N   UNK     0      13.496  -3.786 -33.032  0.00  0.00    -0.225 N 
HETATM   36  C   UNK     0      13.427  -2.856 -31.807  0.00  0.00     0.156 C 
ENDBRANCH  27  28
ENDBRANCH  26  27
ENDBRANCH   4  26
TORSDOF 9
ENDMDL
MODEL 2
REMARK VINA RESULT:      -7.5     13.474     14.892
REMARK  9 active torsions:
REMARK  status: ('A' for Active; 'I' for Inactive)
REMARK    1  A    between atoms: C_3  and  C_21 
REMARK    2  A    between atoms: C_4  and  C_14 
REMARK    3  A    between atoms: C_7  and  N_9 
REMARK       I    between atoms: N_9  and  C_10 
REMARK    4  A    between atoms: C_10  and  C_13 
REMARK    5  A    between atoms: C_13  and  C_15 
REMARK    6  A    between atoms: C_13  and  N_20 
REMARK    7  A    between atoms: C_14  and  S_24 
REMARK    8  A    between atoms: N_20  and  O_35 
REMARK    9  A    between atoms: S_24  and  C_25 
ROOT
HETATM    1  C   UNK     0      -4.479  -8.567 -31.711  0.00  0.00     0.308 A 
HETATM    2  N   UNK     0      -5.316  -7.390 -31.479  0.00  0.00    -0.297 N 
HETATM    3  C   UNK     0      -6.076  -6.730 -32.704  0.00  0.00     0.121 A 
HETATM    4  C   UNK     0      -5.937  -7.313 -34.100  0.00  0.00    -0.002 A 
HETATM    5  C   UNK     0      -5.100  -8.490 -34.333  0.00  0.00     0.065 A 
HETATM    6  S   UNK     0      -4.358  -9.147 -33.182  0.00  0.00    -0.194 SA
HETATM    7  C   UNK     0      -4.125  -8.611 -30.213  0.00  0.00     0.125 A 
HETATM    8  C   UNK     0      -4.961  -7.433 -29.981  0.00  0.00     0.211 A 
HETATM    9  O   UNK     0      -5.100  -6.851 -28.585  0.00  0.00    -0.170 OA
ENDROOT
BRANCH   7  10
HETATM   10  N   UNK     0      -3.383  -9.268 -29.063  0.00  0.00    -0.217 NA
HETATM   11  C   UNK     0      -2.035  -8.710 -28.639  0.00  0.00     0.234 C 
HETATM   12  O   UNK     0      -1.460  -7.555 -29.329  0.00  0.00    -0.167 OA
BRANCH  11  13
HETATM   13  C   UNK     0      -1.294  -9.367 -27.488  0.00  0.00     0.165 C 
BRANCH  13  14
HETATM   14  C   UNK     0      -2.090 -10.123 -26.345  0.00  0.00     0.091 A 
HETATM   15  C   UNK     0      -1.566  -9.846 -24.924  0.00  0.00     0.108 A 
HETATM   16  S   UNK     0      -2.457 -10.660 -23.968  0.00  0.00    -0.072 SA
HETATM   17  C   UNK     0      -3.569 -11.469 -24.802  0.00  0.00     0.456 A 
HETATM   18  N   UNK     0      -3.340 -11.134 -26.287  0.00  0.00    -0.229 NA
HETATM   19  N   UNK     0      -4.651 -12.398 -24.221  0.00  0.00     0.656 N 
ENDBRANCH  13  14
BRANCH  13  20
HETATM   20  N   UNK     0       0.320  -9.304 -27.411  0.00  0.00    -0.126 NA
BRANCH  20  21
HETATM   21  O   UNK     0       1.169  -9.399 -28.694  0.00  0.00    -0.234 OA
HETATM   22  C   UNK     0       2.141  -8.267 -29.074  0.00  0.00     0.211 C 
ENDBRANCH  20  21
ENDBRANCH  13  20
ENDBRANCH  11  13
ENDBRANCH   7  10
BRANCH   3  23
HETATM   23  C   UNK     0      -6.957  -5.491 -32.459  0.00  0.00     0.227 C 
HETATM   24  O   UNK     0      -8.469  -5.586 -32.092  0.00  0.00    -0.643 OA
HETATM   25  O   UNK     0      -6.309  -4.049 -32.584  0.00  0.00    -0.643 OA
ENDBRANCH   3  23
BRANCH   4  26
HETATM   26  C   UNK     0      -6.723  -6.594 -35.239  0.00  0.00     0.089 C 
BRANCH  26  27
HETATM   27  S   UNK     0      -5.900  -5.795 -36.234  0.00  0.00    -0.071 SA
BRANCH  27  28
HETATM   28  C   UNK     0      -4.714  -4.990 -35.733  0.00  0.00     0.190 A 
HETATM   29  N   UNK     0      -3.368  -5.681 -35.445  0.00  0.00    -0.192 NA
HETATM   30  C   UNK     0      -2.181  -4.876 -34.944  0.00  0.00     0.260 A 
HETATM   31  C   UNK     0      -2.310  -3.314 -34.711  0.00  0.00     0.274 A 
HETATM   32  O   UNK     0      -0.835  -5.567 -34.656  0.00  0.00    -0.165 OA
HETATM   33  N   UNK     0      -3.656  -2.623 -34.999  0.00  0.00    -0.136 NA
HETATM   34  O   UNK     0      -1.123  -2.509 -34.210  0.00  0.00    -0.164 OA
HETATM   35  N   UNK     0      -4.873  -3.495 -35.521  0.00  0.00    -0.225 N 
HETATM   36  C   UNK     0      -6.218  -2.804 -35.809  0.00  0.00     0.156 C 
ENDBRANCH  27  28
ENDBRANCH  26  27
ENDBRANCH   4  26
TORSDOF 9
ENDMDL
MODEL 3
REMARK VINA RESULT:      -7.4      2.894      4.258
REMARK  9 active torsions:
REMARK  status: ('A' for Active; 'I' for Inactive)
REMARK    1  A    between atoms: C_3  and  C_21 
REMARK    2  A    between atoms: C_4  and  C_14 
REMARK    3  A    between atoms: C_7  and  N_9 
REMARK       I    between atoms: N_9  and  C_10 
REMARK    4  A    between atoms: C_10  and  C_13 
REMARK    5  A    between atoms: C_13  and  C_15 
REMARK    6  A    between atoms: C_13  and  N_20 
REMARK    7  A    between atoms: C_14  and  S_24 
REMARK    8  A    between atoms: N_20  and  O_35 
REMARK    9  A    between atoms: S_24  and  C_25 
ROOT
HETATM    1  C   UNK     0      10.989  -7.507 -30.455  0.00  0.00     0.308 A 
HETATM    2  N   UNK     0      11.426  -8.724 -31.140  0.00  0.00    -0.297 N 
HETATM    3  C   UNK     0      12.493  -8.609 -32.307  0.00  0.00     0.121 A 
HETATM    4  C   UNK     0      13.053  -7.256 -32.709  0.00  0.00    -0.002 A 
HETATM    5  C   UNK     0      12.616  -6.039 -32.023  0.00  0.00     0.065 A 
HETATM    6  S   UNK     0      11.596  -6.112 -30.901  0.00  0.00    -0.194 SA
HETATM    7  C   UNK     0      10.059  -8.346 -29.559  0.00  0.00     0.125 A 
HETATM    8  C   UNK     0      10.496  -9.562 -30.244  0.00  0.00     0.211 A 
HETATM    9  O   UNK     0       9.935 -10.916 -29.843  0.00  0.00    -0.170 OA
ENDROOT
BRANCH   7  10
HETATM   10  N   UNK     0       9.038  -8.418 -28.436  0.00  0.00    -0.217 NA
HETATM   11  C   UNK     0       9.466  -8.053 -27.026  0.00  0.00     0.234 C 
HETATM   12  O   UNK     0      10.841  -7.636 -26.752  0.00  0.00    -0.167 OA
BRANCH  11  13
HETATM   13  C   UNK     0       8.446  -8.125 -25.903  0.00  0.00     0.165 C 
BRANCH  13  14
HETATM   14  C   UNK     0       8.002  -9.527 -25.308  0.00  0.00     0.091 A 
HETATM   15  C   UNK     0       7.212 -10.406 -26.295  0.00  0.00     0.108 A 
HETATM   16  S   UNK     0       6.877 -11.706 -25.541  0.00  0.00    -0.072 SA
HETATM   17  C   UNK     0       7.468 -11.648 -24.047  0.00  0.00     0.456 A 
HETATM   18  N   UNK     0       8.171 -10.286 -23.901  0.00  0.00    -0.229 NA
HETATM   19  N   UNK     0       7.350 -12.745 -22.973  0.00  0.00     0.656 N 
ENDBRANCH  13  14
BRANCH  13  20
HETATM   20  N   UNK     0       7.795  -6.774 -25.298  0.00  0.00    -0.126 NA
BRANCH  20  21
HETATM   21  O   UNK     0       8.663  -5.776 -24.506  0.00  0.00    -0.234 OA
HETATM   22  C   UNK     0       9.332  -4.586 -25.220  0.00  0.00     0.211 C 
ENDBRANCH  20  21
ENDBRANCH  13  20
ENDBRANCH  11  13
ENDBRANCH   7  10
BRANCH   3  23
HETATM   23  C   UNK     0      12.952  -9.890 -33.029  0.00  0.00     0.227 C 
HETATM   24  O   UNK     0      12.136 -10.554 -34.179  0.00  0.00    -0.643 OA
HETATM   25  O   UNK     0      14.314 -10.573 -32.591  0.00  0.00    -0.643 OA
ENDBRANCH   3  23
BRANCH   4  26
HETATM   26  C   UNK     0      14.097  -7.247 -33.867  0.00  0.00     0.089 C 
BRANCH  26  27
HETATM   27  S   UNK     0      13.567  -6.947 -35.258  0.00  0.00    -0.071 SA
BRANCH  27  28
HETATM   28  C   UNK     0      12.586  -5.802 -35.443  0.00  0.00     0.190 A 
HETATM   29  N   UNK     0      13.086  -4.347 -35.496  0.00  0.00    -0.192 NA
HETATM   30  C   UNK     0      12.106  -3.202 -35.681  0.00  0.00     0.260 A 
HETATM   31  C   UNK     0      10.553  -3.488 -35.823  0.00  0.00     0.274 A 
HETATM   32  O   UNK     0      12.606  -1.746 -35.733  0.00  0.00    -0.165 OA
HETATM   33  N   UNK     0      10.053  -4.943 -35.770  0.00  0.00    -0.136 NA
HETATM   34  O   UNK     0       9.573  -2.343 -36.008  0.00  0.00    -0.164 OA
HETATM   35  N   UNK     0      11.105  -6.113 -35.576  0.00  0.00    -0.225 N 
HETATM   36  C   UNK     0      10.605  -7.568 -35.524  0.00  0.00     0.156 C 
ENDBRANCH  27  28
ENDBRANCH  26  27
ENDBRANCH   4  26
TORSDOF 9
ENDMDL
MODEL 4
REMARK VINA RESULT:      -7.4      2.851      5.157
REMARK  9 active torsions:
REMARK  status: ('A' for Active; 'I' for Inactive)
REMARK    1  A    between atoms: C_3  and  C_21 
REMARK    2  A    between atoms: C_4  and  C_14 
REMARK    3  A    between atoms: C_7  and  N_9 
REMARK       I    between atoms: N_9  and  C_10 
REMARK    4  A    between atoms: C_10  and  C_13 
REMARK    5  A    between atoms: C_13  and  C_15 
REMARK    6  A    between atoms: C_13  and  N_20 
REMARK    7  A    between atoms: C_14  and  S_24 
REMARK    8  A    between atoms: N_20  and  O_35 
REMARK    9  A    between atoms: S_24  and  C_25 
ROOT
HETATM    1  C   UNK     0       8.374 -12.073 -27.153  0.00  0.00     0.308 A 
HETATM    2  N   UNK     0       8.112 -10.902 -26.316  0.00  0.00    -0.297 N 
HETATM    3  C   UNK     0       8.827  -9.531 -26.665  0.00  0.00     0.121 A 
HETATM    4  C   UNK     0       9.770  -9.434 -27.852  0.00  0.00    -0.002 A 
HETATM    5  C   UNK     0      10.032 -10.606 -28.688  0.00  0.00     0.065 A 
HETATM    6  S   UNK     0       9.364 -11.935 -28.383  0.00  0.00    -0.194 SA
HETATM    7  C   UNK     0       7.426 -12.912 -26.275  0.00  0.00     0.125 A 
HETATM    8  C   UNK     0       7.164 -11.741 -25.438  0.00  0.00     0.211 A 
HETATM    9  O   UNK     0       6.221 -11.837 -24.252  0.00  0.00    -0.170 OA
ENDROOT
BRANCH   7  10
HETATM   10  N   UNK     0       6.758 -14.241 -25.969  0.00  0.00    -0.217 NA
HETATM   11  C   UNK     0       5.986 -14.949 -27.069  0.00  0.00     0.234 C 
HETATM   12  O   UNK     0       5.887 -14.359 -28.404  0.00  0.00    -0.167 OA
BRANCH  11  13
HETATM   13  C   UNK     0       5.318 -16.278 -26.764  0.00  0.00     0.165 C 
BRANCH  13  14
HETATM   14  C   UNK     0       4.953 -16.671 -25.271  0.00  0.00     0.091 A 
HETATM   15  C   UNK     0       4.143 -15.597 -24.520  0.00  0.00     0.108 A 
HETATM   16  S   UNK     0       3.891 -16.158 -23.108  0.00  0.00    -0.072 SA
HETATM   17  C   UNK     0       4.554 -17.615 -22.963  0.00  0.00     0.456 A 
HETATM   18  N   UNK     0       5.218 -17.936 -24.315  0.00  0.00    -0.229 NA
HETATM   19  N   UNK     0       4.527 -18.512 -21.712  0.00  0.00     0.656 N 
ENDBRANCH  13  14
BRANCH  13  20
HETATM   20  N   UNK     0       4.969 -17.314 -27.956  0.00  0.00    -0.126 NA
BRANCH  20  21
HETATM   21  O   UNK     0       3.514 -17.754 -28.209  0.00  0.00    -0.234 OA
HETATM   22  C   UNK     0       2.467 -16.740 -28.705  0.00  0.00     0.211 C 
ENDBRANCH  20  21
ENDBRANCH  13  20
ENDBRANCH  11  13
ENDBRANCH   7  10
BRANCH   3  23
HETATM   23  C   UNK     0       8.552  -8.298 -25.784  0.00  0.00     0.227 C 
HETATM   24  O   UNK     0       7.347  -7.338 -26.024  0.00  0.00    -0.643 OA
HETATM   25  O   UNK     0       9.529  -7.981 -24.577  0.00  0.00    -0.643 OA
ENDBRANCH   3  23
BRANCH   4  26
HETATM   26  C   UNK     0      10.425  -8.044 -28.113  0.00  0.00     0.089 C 
BRANCH  26  27
HETATM   27  S   UNK     0      10.104  -7.380 -29.441  0.00  0.00    -0.071 SA
BRANCH  27  28
HETATM   28  C   UNK     0      11.160  -7.367 -30.533  0.00  0.00     0.190 A 
HETATM   29  N   UNK     0      11.484  -8.651 -31.320  0.00  0.00    -0.192 NA
HETATM   30  C   UNK     0      12.539  -8.639 -32.412  0.00  0.00     0.260 A 
HETATM   31  C   UNK     0      13.322  -7.305 -32.759  0.00  0.00     0.274 A 
HETATM   32  O   UNK     0      12.863  -9.922 -33.199  0.00  0.00    -0.165 OA
HETATM   33  N   UNK     0      12.998  -6.021 -31.972  0.00  0.00    -0.136 NA
HETATM   34  O   UNK     0      14.378  -7.292 -33.851  0.00  0.00    -0.164 OA
HETATM   35  N   UNK     0      11.890  -6.072 -30.839  0.00  0.00    -0.225 N 
HETATM   36  C   UNK     0      11.566  -4.788 -30.052  0.00  0.00     0.156 C 
ENDBRANCH  27  28
ENDBRANCH  26  27
ENDBRANCH   4  26
TORSDOF 9
ENDMDL
MODEL 5
REMARK VINA RESULT:      -7.3      2.028      2.476
REMARK  9 active torsions:
REMARK  status: ('A' for Active; 'I' for Inactive)
REMARK    1  A    between atoms: C_3  and  C_21 
REMARK    2  A    between atoms: C_4  and  C_14 
REMARK    3  A    between atoms: C_7  and  N_9 
REMARK       I    between atoms: N_9  and  C_10 
REMARK    4  A    between atoms: C_10  and  C_13 
REMARK    5  A    between atoms: C_13  and  C_15 
REMARK    6  A    between atoms: C_13  and  N_20 
REMARK    7  A    between atoms: C_14  and  S_24 
REMARK    8  A    between atoms: N_20  and  O_35 
REMARK    9  A    between atoms: S_24  and  C_25 
ROOT
HETATM    1  C   UNK     0       9.979  -9.352 -28.153  0.00  0.00     0.308 A 
HETATM    2  N   UNK     0       9.309  -8.052 -28.183  0.00  0.00    -0.297 N 
HETATM    3  C   UNK     0       9.784  -6.966 -29.237  0.00  0.00     0.121 A 
HETATM    4  C   UNK     0      10.917  -7.271 -30.200  0.00  0.00    -0.002 A 
HETATM    5  C   UNK     0      11.587  -8.572 -30.170  0.00  0.00     0.065 A 
HETATM    6  S   UNK     0      11.158  -9.635 -29.174  0.00  0.00    -0.194 SA
HETATM    7  C   UNK     0       9.060  -9.798 -27.000  0.00  0.00     0.125 A 
HETATM    8  C   UNK     0       8.390  -8.498 -27.031  0.00  0.00     0.211 A 
HETATM    9  O   UNK     0       7.257  -8.193 -26.067  0.00  0.00    -0.170 OA
ENDROOT
BRANCH   7  10
HETATM   10  N   UNK     0       8.632 -10.862 -26.004  0.00  0.00    -0.217 NA
HETATM   11  C   UNK     0       8.015 -12.150 -26.520  0.00  0.00     0.234 C 
HETATM   12  O   UNK     0       7.837 -12.364 -27.956  0.00  0.00    -0.167 OA
BRANCH  11  13
HETATM   13  C   UNK     0       7.587 -13.214 -25.524  0.00  0.00     0.165 C 
BRANCH  13  14
HETATM   14  C   UNK     0       6.943 -14.573 -26.026  0.00  0.00     0.091 A 
HETATM   15  C   UNK     0       7.667 -15.835 -25.523  0.00  0.00     0.108 A 
HETATM   16  S   UNK     0       6.901 -17.035 -26.110  0.00  0.00    -0.072 SA
HETATM   17  C   UNK     0       5.667 -16.521 -27.004  0.00  0.00     0.456 A 
HETATM   18  N   UNK     0       5.693 -14.982 -26.952  0.00  0.00    -0.229 NA
HETATM   19  N   UNK     0       4.658 -17.402 -27.763  0.00  0.00     0.656 N 
ENDBRANCH  13  14
BRANCH  13  20
HETATM   20  N   UNK     0       7.781 -12.976 -23.937  0.00  0.00    -0.126 NA
BRANCH  20  21
HETATM   21  O   UNK     0       6.568 -12.666 -23.038  0.00  0.00    -0.234 OA
HETATM   22  C   UNK     0       6.619 -12.960 -21.527  0.00  0.00     0.211 C 
ENDBRANCH  20  21
ENDBRANCH  13  20
ENDBRANCH  11  13
ENDBRANCH   7  10
BRANCH   3  23
HETATM   23  C   UNK     0       9.079  -5.597 -29.269  0.00  0.00     0.227 C 
HETATM   24  O   UNK     0       9.572  -4.371 -28.443  0.00  0.00    -0.643 OA
HETATM   25  O   UNK     0       7.793  -5.415 -30.180  0.00  0.00    -0.643 OA
ENDBRANCH   3  23
BRANCH   4  26
HETATM   26  C   UNK     0      11.310  -6.140 -31.198  0.00  0.00     0.089 C 
BRANCH  26  27
HETATM   27  S   UNK     0      12.772  -6.069 -31.605  0.00  0.00    -0.071 SA
BRANCH  27  28
HETATM   28  C   UNK     0      13.133  -5.482 -32.959  0.00  0.00     0.190 A 
HETATM   29  N   UNK     0      13.220  -6.384 -34.203  0.00  0.00    -0.192 NA
HETATM   30  C   UNK     0      13.581  -5.797 -35.557  0.00  0.00     0.260 A 
HETATM   31  C   UNK     0      13.873  -4.246 -35.708  0.00  0.00     0.274 A 
HETATM   32  O   UNK     0      13.669  -6.700 -36.801  0.00  0.00    -0.165 OA
HETATM   33  N   UNK     0      13.786  -3.343 -34.464  0.00  0.00    -0.136 NA
HETATM   34  O   UNK     0      14.234  -3.659 -37.061  0.00  0.00    -0.164 OA
HETATM   35  N   UNK     0      13.406  -3.992 -33.067  0.00  0.00    -0.225 N 
HETATM   36  C   UNK     0      13.318  -3.089 -31.823  0.00  0.00     0.156 C 
ENDBRANCH  27  28
ENDBRANCH  26  27
ENDBRANCH   4  26
TORSDOF 9
ENDMDL
MODEL 6
REMARK VINA RESULT:      -7.3     38.452     42.247
REMARK  9 active torsions:
REMARK  status: ('A' for Active; 'I' for Inactive)
REMARK    1  A    between atoms: C_3  and  C_21 
REMARK    2  A    between atoms: C_4  and  C_14 
REMARK    3  A    between atoms: C_7  and  N_9 
REMARK       I    between atoms: N_9  and  C_10 
REMARK    4  A    between atoms: C_10  and  C_13 
REMARK    5  A    between atoms: C_13  and  C_15 
REMARK    6  A    between atoms: C_13  and  N_20 
REMARK    7  A    between atoms: C_14  and  S_24 
REMARK    8  A    between atoms: N_20  and  O_35 
REMARK    9  A    between atoms: S_24  and  C_25 
ROOT
HETATM    1  C   UNK     0      -8.196 -26.796   2.865  0.00  0.00     0.308 A 
HETATM    2  N   UNK     0      -9.097 -26.598   4.001  0.00  0.00    -0.297 N 
HETATM    3  C   UNK     0     -10.662 -26.689   3.768  0.00  0.00     0.121 A 
HETATM    4  C   UNK     0     -11.220 -26.979   2.386  0.00  0.00    -0.002 A 
HETATM    5  C   UNK     0     -10.320 -27.178   1.250  0.00  0.00     0.065 A 
HETATM    6  S   UNK     0      -8.815 -27.097   1.437  0.00  0.00    -0.194 SA
HETATM    7  C   UNK     0      -6.983 -26.578   3.789  0.00  0.00     0.125 A 
HETATM    8  C   UNK     0      -7.883 -26.380   4.925  0.00  0.00     0.211 A 
HETATM    9  O   UNK     0      -7.326 -26.090   6.307  0.00  0.00    -0.170 OA
ENDROOT
BRANCH   7  10
HETATM   10  N   UNK     0      -5.478 -26.498   3.975  0.00  0.00    -0.217 NA
HETATM   11  C   UNK     0      -4.588 -27.470   3.222  0.00  0.00     0.234 C 
HETATM   12  O   UNK     0      -5.172 -28.471   2.329  0.00  0.00    -0.167 OA
BRANCH  11  13
HETATM   13  C   UNK     0      -3.083 -27.390   3.409  0.00  0.00     0.165 C 
BRANCH  13  14
HETATM   14  C   UNK     0      -2.108 -28.155   2.420  0.00  0.00     0.091 A 
HETATM   15  C   UNK     0      -2.162 -27.649   0.967  0.00  0.00     0.108 A 
HETATM   16  S   UNK     0      -1.158 -28.506   0.174  0.00  0.00    -0.072 SA
HETATM   17  C   UNK     0      -0.454 -29.576   1.145  0.00  0.00     0.456 A 
HETATM   18  N   UNK     0      -1.048 -29.357   2.549  0.00  0.00    -0.229 NA
HETATM   19  N   UNK     0       0.607 -30.617   0.744  0.00  0.00     0.656 N 
ENDBRANCH  13  14
BRANCH  13  20
HETATM   20  N   UNK     0      -2.452 -26.522   4.619  0.00  0.00    -0.126 NA
BRANCH  20  21
HETATM   21  O   UNK     0      -0.931 -26.295   4.708  0.00  0.00    -0.234 OA
HETATM   22  C   UNK     0      -0.046 -27.243   5.539  0.00  0.00     0.211 C 
ENDBRANCH  20  21
ENDBRANCH  13  20
ENDBRANCH  11  13
ENDBRANCH   7  10
BRANCH   3  23
HETATM   23  C   UNK     0     -11.610 -26.480   4.964  0.00  0.00     0.227 C 
HETATM   24  O   UNK     0     -12.327 -25.125   5.250  0.00  0.00    -0.643 OA
HETATM   25  O   UNK     0     -11.876 -27.688   5.956  0.00  0.00    -0.643 OA
ENDBRANCH   3  23
BRANCH   4  26
HETATM   26  C   UNK     0     -12.772 -27.049   2.259  0.00  0.00     0.089 C 
BRANCH  26  27
HETATM   27  S   UNK     0     -13.425 -26.045   1.325  0.00  0.00    -0.071 SA
BRANCH  27  28
HETATM   28  C   UNK     0     -14.906 -26.178   1.017  0.00  0.00     0.190 A 
HETATM   29  N   UNK     0     -15.379 -26.982  -0.208  0.00  0.00    -0.192 NA
HETATM   30  C   UNK     0     -16.860 -27.116  -0.516  0.00  0.00     0.260 A 
HETATM   31  C   UNK     0     -17.941 -26.429   0.418  0.00  0.00     0.274 A 
HETATM   32  O   UNK     0     -17.333 -27.920  -1.741  0.00  0.00    -0.165 OA
HETATM   33  N   UNK     0     -17.468 -25.624   1.644  0.00  0.00    -0.136 NA
HETATM   34  O   UNK     0     -19.422 -26.562   0.110  0.00  0.00    -0.164 OA
HETATM   35  N   UNK     0     -15.914 -25.507   1.934  0.00  0.00    -0.225 N 
HETATM   36  C   UNK     0     -15.440 -24.703   3.159  0.00  0.00     0.156 C 
ENDBRANCH  27  28
ENDBRANCH  26  27
ENDBRANCH   4  26
TORSDOF 9
ENDMDL
MODEL 7
REMARK VINA RESULT:      -7.2     13.129     14.637
REMARK  9 active torsions:
REMARK  status: ('A' for Active; 'I' for Inactive)
REMARK    1  A    between atoms: C_3  and  C_21 
REMARK    2  A    between atoms: C_4  and  C_14 
REMARK    3  A    between atoms: C_7  and  N_9 
REMARK       I    between atoms: N_9  and  C_10 
REMARK    4  A    between atoms: C_10  and  C_13 
REMARK    5  A    between atoms: C_13  and  C_15 
REMARK    6  A    between atoms: C_13  and  N_20 
REMARK    7  A    between atoms: C_14  and  S_24 
REMARK    8  A    between atoms: N_20  and  O_35 
REMARK    9  A    between atoms: S_24  and  C_25 
ROOT
HETATM    1  C   UNK     0      -3.642  -8.832 -29.238  0.00  0.00     0.308 A 
HETATM    2  N   UNK     0      -3.232  -9.724 -30.322  0.00  0.00    -0.297 N 
HETATM    3  C   UNK     0      -3.886  -9.544 -31.755  0.00  0.00     0.121 A 
HETATM    4  C   UNK     0      -4.923  -8.462 -31.999  0.00  0.00    -0.002 A 
HETATM    5  C   UNK     0      -5.332  -7.569 -30.914  0.00  0.00     0.065 A 
HETATM    6  S   UNK     0      -4.727  -7.713 -29.529  0.00  0.00    -0.194 SA
HETATM    7  C   UNK     0      -2.676  -9.553 -28.279  0.00  0.00     0.125 A 
HETATM    8  C   UNK     0      -2.266 -10.445 -29.364  0.00  0.00     0.211 A 
HETATM    9  O   UNK     0      -1.229 -11.528 -29.121  0.00  0.00    -0.170 OA
ENDROOT
BRANCH   7  10
HETATM   10  N   UNK     0      -2.070  -9.697 -26.894  0.00  0.00    -0.217 NA
HETATM   11  C   UNK     0      -2.603 -10.772 -25.964  0.00  0.00     0.234 C 
HETATM   12  O   UNK     0      -3.684 -11.658 -26.396  0.00  0.00    -0.167 OA
BRANCH  11  13
HETATM   13  C   UNK     0      -1.997 -10.916 -24.579  0.00  0.00     0.165 C 
BRANCH  13  14
HETATM   14  C   UNK     0      -2.658 -11.881 -23.508  0.00  0.00     0.091 A 
HETATM   15  C   UNK     0      -1.698 -12.332 -22.392  0.00  0.00     0.108 A 
HETATM   16  S   UNK     0      -2.516 -13.250 -21.465  0.00  0.00    -0.072 SA
HETATM   17  C   UNK     0      -4.024 -13.382 -22.005  0.00  0.00     0.456 A 
HETATM   18  N   UNK     0      -4.113 -12.526 -23.282  0.00  0.00    -0.229 NA
HETATM   19  N   UNK     0      -5.157 -14.207 -21.366  0.00  0.00     0.656 N 
ENDBRANCH  13  14
BRANCH  13  20
HETATM   20  N   UNK     0      -0.669 -10.087 -24.174  0.00  0.00    -0.126 NA
BRANCH  20  21
HETATM   21  O   UNK     0      -0.784  -8.683 -23.549  0.00  0.00    -0.234 OA
HETATM   22  C   UNK     0      -2.080  -7.864 -23.698  0.00  0.00     0.211 C 
ENDBRANCH  20  21
ENDBRANCH  13  20
ENDBRANCH  11  13
ENDBRANCH   7  10
BRANCH   3  23
HETATM   23  C   UNK     0      -3.455 -10.483 -32.897  0.00  0.00     0.227 C 
HETATM   24  O   UNK     0      -2.017 -10.477 -33.501  0.00  0.00    -0.643 OA
HETATM   25  O   UNK     0      -4.510 -11.505 -33.494  0.00  0.00    -0.643 OA
ENDBRANCH   3  23
BRANCH   4  26
HETATM   26  C   UNK     0      -5.507  -8.365 -33.441  0.00  0.00     0.089 C 
BRANCH  26  27
HETATM   27  S   UNK     0      -4.953  -7.263 -34.328  0.00  0.00    -0.071 SA
BRANCH  27  28
HETATM   28  C   UNK     0      -5.172  -5.814 -33.928  0.00  0.00     0.190 A 
HETATM   29  N   UNK     0      -6.559  -5.164 -34.083  0.00  0.00    -0.192 NA
HETATM   30  C   UNK     0      -6.779  -3.715 -33.684  0.00  0.00     0.260 A 
HETATM   31  C   UNK     0      -5.584  -2.851 -33.102  0.00  0.00     0.274 A 
HETATM   32  O   UNK     0      -8.166  -3.064 -33.839  0.00  0.00    -0.165 OA
HETATM   33  N   UNK     0      -4.197  -3.502 -32.947  0.00  0.00    -0.136 NA
HETATM   34  O   UNK     0      -5.803  -1.402 -32.703  0.00  0.00    -0.164 OA
HETATM   35  N   UNK     0      -4.005  -5.017 -33.375  0.00  0.00    -0.225 N 
HETATM   36  C   UNK     0      -2.618  -5.667 -33.220  0.00  0.00     0.156 C 
ENDBRANCH  27  28
ENDBRANCH  26  27
ENDBRANCH   4  26
TORSDOF 9
ENDMDL
MODEL 8
REMARK VINA RESULT:      -6.9     13.355     15.152
REMARK  9 active torsions:
REMARK  status: ('A' for Active; 'I' for Inactive)
REMARK    1  A    between atoms: C_3  and  C_21 
REMARK    2  A    between atoms: C_4  and  C_14 
REMARK    3  A    between atoms: C_7  and  N_9 
REMARK       I    between atoms: N_9  and  C_10 
REMARK    4  A    between atoms: C_10  and  C_13 
REMARK    5  A    between atoms: C_13  and  C_15 
REMARK    6  A    between atoms: C_13  and  N_20 
REMARK    7  A    between atoms: C_14  and  S_24 
REMARK    8  A    between atoms: N_20  and  O_35 
REMARK    9  A    between atoms: S_24  and  C_25 
ROOT
HETATM    1  C   UNK     0      -3.795  -8.314 -29.231  0.00  0.00     0.308 A 
HETATM    2  N   UNK     0      -3.747  -9.378 -30.234  0.00  0.00    -0.297 N 
HETATM    3  C   UNK     0      -4.719  -9.301 -31.485  0.00  0.00     0.121 A 
HETATM    4  C   UNK     0      -5.686  -8.141 -31.639  0.00  0.00    -0.002 A 
HETATM    5  C   UNK     0      -5.734  -7.077 -30.636  0.00  0.00     0.065 A 
HETATM    6  S   UNK     0      -4.818  -7.118 -29.426  0.00  0.00    -0.194 SA
HETATM    7  C   UNK     0      -2.687  -9.021 -28.428  0.00  0.00     0.125 A 
HETATM    8  C   UNK     0      -2.639 -10.084 -29.431  0.00  0.00     0.211 A 
HETATM    9  O   UNK     0      -1.672 -11.245 -29.277  0.00  0.00    -0.170 OA
ENDROOT
BRANCH   7  10
HETATM   10  N   UNK     0      -1.771  -9.061 -27.218  0.00  0.00    -0.217 NA
HETATM   11  C   UNK     0      -1.202  -7.761 -26.679  0.00  0.00     0.234 C 
HETATM   12  O   UNK     0      -1.532  -6.486 -27.317  0.00  0.00    -0.167 OA
BRANCH  11  13
HETATM   13  C   UNK     0      -0.285  -7.802 -25.469  0.00  0.00     0.165 C 
BRANCH  13  14
HETATM   14  C   UNK     0      -0.859  -7.526 -24.016  0.00  0.00     0.091 A 
HETATM   15  C   UNK     0      -2.143  -6.676 -23.998  0.00  0.00     0.108 A 
HETATM   16  S   UNK     0      -2.537  -6.522 -22.518  0.00  0.00    -0.072 SA
HETATM   17  C   UNK     0      -1.481  -7.290 -21.580  0.00  0.00     0.456 A 
HETATM   18  N   UNK     0      -0.432  -7.917 -22.516  0.00  0.00    -0.229 NA
HETATM   19  N   UNK     0      -1.516  -7.377 -20.043  0.00  0.00     0.656 N 
ENDBRANCH  13  14
BRANCH  13  20
HETATM   20  N   UNK     0       1.289  -8.126 -25.643  0.00  0.00    -0.126 NA
BRANCH  20  21
HETATM   21  O   UNK     0       1.788  -9.584 -25.673  0.00  0.00    -0.234 OA
HETATM   22  C   UNK     0       0.993 -10.697 -24.965  0.00  0.00     0.211 C 
ENDBRANCH  20  21
ENDBRANCH  13  20
ENDBRANCH  11  13
ENDBRANCH   7  10
BRANCH   3  23
HETATM   23  C   UNK     0      -4.668 -10.421 -32.541  0.00  0.00     0.227 C 
HETATM   24  O   UNK     0      -3.550 -10.515 -33.623  0.00  0.00    -0.643 OA
HETATM   25  O   UNK     0      -5.797 -11.534 -32.538  0.00  0.00    -0.643 OA
ENDBRANCH   3  23
BRANCH   4  26
HETATM   26  C   UNK     0      -6.600  -8.156 -32.902  0.00  0.00     0.089 C 
BRANCH  26  27
HETATM   27  S   UNK     0      -7.480  -6.937 -33.120  0.00  0.00    -0.071 SA
BRANCH  27  28
HETATM   28  C   UNK     0      -6.919  -5.749 -33.883  0.00  0.00     0.190 A 
HETATM   29  N   UNK     0      -6.127  -5.961 -35.186  0.00  0.00    -0.192 NA
HETATM   30  C   UNK     0      -5.566  -4.773 -35.948  0.00  0.00     0.260 A 
HETATM   31  C   UNK     0      -5.789  -3.297 -35.414  0.00  0.00     0.274 A 
HETATM   32  O   UNK     0      -4.773  -4.985 -37.251  0.00  0.00    -0.165 OA
HETATM   33  N   UNK     0      -6.582  -3.085 -34.111  0.00  0.00    -0.136 NA
HETATM   34  O   UNK     0      -5.229  -2.109 -36.177  0.00  0.00    -0.164 OA
HETATM   35  N   UNK     0      -7.152  -4.349 -33.342  0.00  0.00    -0.225 N 
HETATM   36  C   UNK     0      -7.945  -4.137 -32.039  0.00  0.00     0.156 C 
ENDBRANCH  27  28
ENDBRANCH  26  27
ENDBRANCH   4  26
TORSDOF 9
ENDMDL
MODEL 9
REMARK VINA RESULT:      -6.8     28.794     34.317
REMARK  9 active torsions:
REMARK  status: ('A' for Active; 'I' for Inactive)
REMARK    1  A    between atoms: C_3  and  C_21 
REMARK    2  A    between atoms: C_4  and  C_14 
REMARK    3  A    between atoms: C_7  and  N_9 
REMARK       I    between atoms: N_9  and  C_10 
REMARK    4  A    between atoms: C_10  and  C_13 
REMARK    5  A    between atoms: C_13  and  C_15 
REMARK    6  A    between atoms: C_13  and  N_20 
REMARK    7  A    between atoms: C_14  and  S_24 
REMARK    8  A    between atoms: N_20  and  O_35 
REMARK    9  A    between atoms: S_24  and  C_25 
ROOT
HETATM    1  C   UNK     0      -7.467 -33.513 -12.503  0.00  0.00     0.308 A 
HETATM    2  N   UNK     0      -7.655 -33.572 -11.053  0.00  0.00    -0.297 N 
HETATM    3  C   UNK     0      -6.738 -32.675 -10.121  0.00  0.00     0.121 A 
HETATM    4  C   UNK     0      -5.680 -31.767 -10.724  0.00  0.00    -0.002 A 
HETATM    5  C   UNK     0      -5.492 -31.709 -12.174  0.00  0.00     0.065 A 
HETATM    6  S   UNK     0      -6.353 -32.554 -13.097  0.00  0.00    -0.194 SA
HETATM    7  C   UNK     0      -8.595 -34.544 -12.691  0.00  0.00     0.125 A 
HETATM    8  C   UNK     0      -8.783 -34.603 -11.241  0.00  0.00     0.211 A 
HETATM    9  O   UNK     0      -9.841 -35.510 -10.638  0.00  0.00    -0.170 OA
ENDROOT
BRANCH   7  10
HETATM   10  N   UNK     0      -9.455 -35.390 -13.614  0.00  0.00    -0.217 NA
HETATM   11  C   UNK     0      -8.800 -36.488 -14.432  0.00  0.00     0.234 C 
HETATM   12  O   UNK     0      -7.360 -36.729 -14.333  0.00  0.00    -0.167 OA
BRANCH  11  13
HETATM   13  C   UNK     0      -9.660 -37.334 -15.355  0.00  0.00     0.165 C 
BRANCH  13  14
HETATM   14  C   UNK     0     -10.073 -36.795 -16.788  0.00  0.00     0.091 A 
HETATM   15  C   UNK     0      -8.897 -36.242 -17.614  0.00  0.00     0.108 A 
HETATM   16  S   UNK     0      -9.493 -35.774 -18.954  0.00  0.00    -0.072 SA
HETATM   17  C   UNK     0     -11.079 -36.035 -18.977  0.00  0.00     0.456 A 
HETATM   18  N   UNK     0     -11.442 -36.673 -17.623  0.00  0.00    -0.229 NA
HETATM   19  N   UNK     0     -12.044 -35.709 -20.131  0.00  0.00     0.656 N 
ENDBRANCH  13  14
BRANCH  13  20
HETATM   20  N   UNK     0     -10.168 -38.797 -14.890  0.00  0.00    -0.126 NA
BRANCH  20  21
HETATM   21  O   UNK     0     -11.443 -38.948 -14.038  0.00  0.00    -0.234 OA
HETATM   22  C   UNK     0     -12.676 -38.067 -14.314  0.00  0.00     0.211 C 
ENDBRANCH  20  21
ENDBRANCH  13  20
ENDBRANCH  11  13
ENDBRANCH   7  10
BRANCH   3  23
HETATM   23  C   UNK     0      -6.936 -32.736  -8.595  0.00  0.00     0.227 C 
HETATM   24  O   UNK     0      -7.643 -31.606  -7.786  0.00  0.00    -0.643 OA
HETATM   25  O   UNK     0      -6.402 -34.000  -7.800  0.00  0.00    -0.643 OA
ENDBRANCH   3  23
BRANCH   4  26
HETATM   26  C   UNK     0      -4.830 -30.925  -9.725  0.00  0.00     0.089 C 
BRANCH  26  27
HETATM   27  S   UNK     0      -3.397 -30.628 -10.132  0.00  0.00    -0.071 SA
BRANCH  27  28
HETATM   28  C   UNK     0      -3.000 -29.195 -10.440  0.00  0.00     0.190 A 
HETATM   29  N   UNK     0      -3.192 -28.618 -11.854  0.00  0.00    -0.192 NA
HETATM   30  C   UNK     0      -2.794 -27.185 -12.162  0.00  0.00     0.260 A 
HETATM   31  C   UNK     0      -2.175 -26.262 -11.031  0.00  0.00     0.274 A 
HETATM   32  O   UNK     0      -2.986 -26.608 -13.577  0.00  0.00    -0.165 OA
HETATM   33  N   UNK     0      -1.983 -26.839  -9.616  0.00  0.00    -0.136 NA
HETATM   34  O   UNK     0      -1.777 -24.829 -11.339  0.00  0.00    -0.164 OA
HETATM   35  N   UNK     0      -2.410 -28.339  -9.332  0.00  0.00    -0.225 N 
HETATM   36  C   UNK     0      -2.218 -28.916  -7.918  0.00  0.00     0.156 C 
ENDBRANCH  27  28
ENDBRANCH  26  27
ENDBRANCH   4  26
TORSDOF 9
ENDMDL
MODEL 10
REMARK VINA RESULT:      -6.8     40.834     46.706
REMARK  9 active torsions:
REMARK  status: ('A' for Active; 'I' for Inactive)
REMARK    1  A    between atoms: C_3  and  C_21 
REMARK    2  A    between atoms: C_4  and  C_14 
REMARK    3  A    between atoms: C_7  and  N_9 
REMARK       I    between atoms: N_9  and  C_10 
REMARK    4  A    between atoms: C_10  and  C_13 
REMARK    5  A    between atoms: C_13  and  C_15 
REMARK    6  A    between atoms: C_13  and  N_20 
REMARK    7  A    between atoms: C_14  and  S_24 
REMARK    8  A    between atoms: N_20  and  O_35 
REMARK    9  A    between atoms: S_24  and  C_25 
ROOT
HETATM    1  C   UNK     0       0.544 -13.303  16.704  0.00  0.00     0.308 A 
HETATM    2  N   UNK     0       1.008 -14.574  16.147  0.00  0.00    -0.297 N 
HETATM    3  C   UNK     0       2.543 -14.745  15.792  0.00  0.00     0.121 A 
HETATM    4  C   UNK     0       3.520 -13.606  16.026  0.00  0.00    -0.002 A 
HETATM    5  C   UNK     0       3.056 -12.335  16.583  0.00  0.00     0.065 A 
HETATM    6  S   UNK     0       1.592 -12.136  16.934  0.00  0.00    -0.194 SA
HETATM    7  C   UNK     0      -0.891 -13.856  16.773  0.00  0.00     0.125 A 
HETATM    8  C   UNK     0      -0.428 -15.128  16.217  0.00  0.00     0.211 A 
HETATM    9  O   UNK     0      -1.404 -16.267  15.983  0.00  0.00    -0.170 OA
ENDROOT
BRANCH   7  10
HETATM   10  N   UNK     0      -2.355 -13.658  17.125  0.00  0.00    -0.217 NA
HETATM   11  C   UNK     0      -2.748 -13.487  18.582  0.00  0.00     0.234 C 
HETATM   12  O   UNK     0      -1.730 -13.515  19.632  0.00  0.00    -0.167 OA
BRANCH  11  13
HETATM   13  C   UNK     0      -4.212 -13.289  18.933  0.00  0.00     0.165 C 
BRANCH  13  14
HETATM   14  C   UNK     0      -5.001 -14.397  19.746  0.00  0.00     0.091 A 
HETATM   15  C   UNK     0      -6.386 -13.944  20.245  0.00  0.00     0.108 A 
HETATM   16  S   UNK     0      -6.986 -15.144  21.001  0.00  0.00    -0.072 SA
HETATM   17  C   UNK     0      -5.960 -16.382  20.980  0.00  0.00     0.456 A 
HETATM   18  N   UNK     0      -4.719 -15.915  20.196  0.00  0.00    -0.229 NA
HETATM   19  N   UNK     0      -6.181 -17.764  21.622  0.00  0.00     0.656 N 
ENDBRANCH  13  14
BRANCH  13  20
HETATM   20  N   UNK     0      -4.987 -11.943  18.484  0.00  0.00    -0.126 NA
BRANCH  20  21
HETATM   21  O   UNK     0      -4.240 -10.597  18.412  0.00  0.00    -0.234 OA
HETATM   22  C   UNK     0      -3.664 -10.094  17.075  0.00  0.00     0.211 C 
ENDBRANCH  20  21
ENDBRANCH  13  20
ENDBRANCH  11  13
ENDBRANCH   7  10
BRANCH   3  23
HETATM   23  C   UNK     0       3.031 -16.084  15.207  0.00  0.00     0.227 C 
HETATM   24  O   UNK     0       2.774 -16.505  13.728  0.00  0.00    -0.643 OA
HETATM   25  O   UNK     0       3.831 -17.086  16.139  0.00  0.00    -0.643 OA
ENDBRANCH   3  23
BRANCH   4  26
HETATM   26  C   UNK     0       5.008 -13.872  15.646  0.00  0.00     0.089 C 
BRANCH  26  27
HETATM   27  S   UNK     0       5.807 -12.679  15.151  0.00  0.00    -0.071 SA
BRANCH  27  28
HETATM   28  C   UNK     0       6.017 -12.499  13.658  0.00  0.00     0.190 A 
HETATM   29  N   UNK     0       4.812 -12.316  12.717  0.00  0.00    -0.192 NA
HETATM   30  C   UNK     0       5.022 -12.136  11.223  0.00  0.00     0.260 A 
HETATM   31  C   UNK     0       6.485 -12.134  10.611  0.00  0.00     0.274 A 
HETATM   32  O   UNK     0       3.817 -11.953  10.282  0.00  0.00    -0.165 OA
HETATM   33  N   UNK     0       7.690 -12.317  11.552  0.00  0.00    -0.136 NA
HETATM   34  O   UNK     0       6.694 -11.954   9.118  0.00  0.00    -0.164 OA
HETATM   35  N   UNK     0       7.432 -12.502  13.106  0.00  0.00    -0.225 N 
HETATM   36  C   UNK     0       8.637 -12.685  14.047  0.00  0.00     0.156 C 
ENDBRANCH  27  28
ENDBRANCH  26  27
ENDBRANCH   4  26
TORSDOF 9
ENDMDL
