MODEL 1
REMARK VINA RESULT:      -7.9      0.000      0.000
REMARK  1 active torsions:
REMARK  status: ('A' for Active; 'I' for Inactive)
REMARK    1  A    between atoms: N_7  and  C_15 
ROOT
HETATM    1 Cl   UNK     0     -21.694  13.474 -14.630  0.00  0.00    -0.143 Cl
HETATM    2  O   UNK     0     -26.442  16.400 -19.674  0.00  0.00    -0.168 OA
HETATM    3  N   UNK     0     -25.579  15.850 -17.276  0.00  0.00    -0.223 NA
HETATM    4  N   UNK     0     -22.992  14.310 -18.981  0.00  0.00    -0.240 NA
HETATM    5  C   UNK     0     -23.380  14.510 -16.241  0.00  0.00     0.042 A 
HETATM    6  C   UNK     0     -24.696  15.303 -16.138  0.00  0.00     0.064 A 
HETATM    7  C   UNK     0     -22.621  14.069 -17.505  0.00  0.00     0.080 A 
HETATM    8  C   UNK     0     -21.320  13.281 -17.264  0.00  0.00     0.001 A 
HETATM    9  C   UNK     0     -22.605  14.027 -14.921  0.00  0.00     0.067 A 
HETATM   10  C   UNK     0     -25.329  15.667 -14.709  0.00  0.00     0.052 A 
HETATM   11  C   UNK     0     -24.212  15.053 -19.556  0.00  0.00     0.146 A 
HETATM   12  C   UNK     0     -23.209  14.374 -13.477  0.00  0.00     0.114 A 
HETATM   13  C   UNK     0     -25.364  15.738 -18.797  0.00  0.00     0.232 A 
HETATM   14  C   UNK     0     -24.580  15.199 -13.371  0.00  0.00     0.058 A 
HETATM   15  C   UNK     0     -20.856  12.983 -15.826  0.00  0.00     0.022 A 
HETATM   16  C   UNK     0     -20.483  12.791 -18.460  0.00  0.00     0.028 A 
HETATM   17  C   UNK     0     -19.555  12.196 -15.584  0.00  0.00     0.037 A 
HETATM   18  C   UNK     0     -19.182  12.003 -18.218  0.00  0.00     0.005 A 
HETATM   19  C   UNK     0     -18.718  11.706 -16.780  0.00  0.00     0.006 A 
ENDROOT
BRANCH  12  20
HETATM   20  N   UNK     0     -22.478  13.917 -12.201  0.00  0.00    -0.117 N 
HETATM   21  O   UNK     0     -22.818  12.557 -11.563  0.00  0.00    -0.532 OA
HETATM   22  O   UNK     0     -21.407  14.820 -11.563  0.00  0.00    -0.532 OA
ENDBRANCH  12  20
TORSDOF 1
ENDMDL
MODEL 2
REMARK VINA RESULT:      -7.2     39.597     42.820
REMARK  1 active torsions:
REMARK  status: ('A' for Active; 'I' for Inactive)
REMARK    1  A    between atoms: N_7  and  C_15 
ROOT
HETATM    1 Cl   UNK     0      18.620  -1.068 -19.164  0.00  0.00    -0.143 Cl
HETATM    2  O   UNK     0      13.848   4.213 -21.589  0.00  0.00    -0.168 OA
HETATM    3  N   UNK     0      15.740   2.437 -21.840  0.00  0.00    -0.223 NA
HETATM    4  N   UNK     0      15.259   2.013 -18.439  0.00  0.00    -0.240 NA
HETATM    5  C   UNK     0      17.051   0.708 -20.109  0.00  0.00     0.042 A 
HETATM    6  C   UNK     0      16.766   1.345 -21.483  0.00  0.00     0.064 A 
HETATM    7  C   UNK     0      16.380   1.005 -18.756  0.00  0.00     0.080 A 
HETATM    8  C   UNK     0      16.899   0.186 -17.559  0.00  0.00     0.001 A 
HETATM    9  C   UNK     0      18.173  -0.428 -19.945  0.00  0.00     0.067 A 
HETATM   10  C   UNK     0      17.583   0.891 -22.786  0.00  0.00     0.052 A 
HETATM   11  C   UNK     0      14.532   2.973 -19.400  0.00  0.00     0.146 A 
HETATM   12  C   UNK     0      19.008  -0.905 -21.228  0.00  0.00     0.114 A 
HETATM   13  C   UNK     0      14.746   3.161 -20.913  0.00  0.00     0.232 A 
HETATM   14  C   UNK     0      18.712  -0.241 -22.658  0.00  0.00     0.058 A 
HETATM   15  C   UNK     0      18.020  -0.851 -17.763  0.00  0.00     0.022 A 
HETATM   16  C   UNK     0      16.298   0.404 -16.158  0.00  0.00     0.028 A 
HETATM   17  C   UNK     0      18.538  -1.669 -16.566  0.00  0.00     0.037 A 
HETATM   18  C   UNK     0      16.817  -0.415 -14.961  0.00  0.00     0.005 A 
HETATM   19  C   UNK     0      17.937  -1.451 -15.166  0.00  0.00     0.006 A 
ENDROOT
BRANCH  12  20
HETATM   20  N   UNK     0      20.089  -1.994 -21.088  0.00  0.00    -0.117 N 
HETATM   21  O   UNK     0      21.542  -1.694 -21.501  0.00  0.00    -0.532 OA
HETATM   22  O   UNK     0      19.716  -3.381 -20.534  0.00  0.00    -0.532 OA
ENDBRANCH  12  20
TORSDOF 1
ENDMDL
MODEL 3
REMARK VINA RESULT:      -7.2     38.154     41.322
REMARK  1 active torsions:
REMARK  status: ('A' for Active; 'I' for Inactive)
REMARK    1  A    between atoms: N_7  and  C_15 
ROOT
HETATM    1 Cl   UNK     0      18.119   2.584 -20.410  0.00  0.00    -0.143 Cl
HETATM    2  O   UNK     0      11.050   1.294 -18.192  0.00  0.00    -0.168 OA
HETATM    3  N   UNK     0      13.120   2.773 -18.760  0.00  0.00    -0.223 NA
HETATM    4  N   UNK     0      14.610  -0.267 -19.473  0.00  0.00    -0.240 NA
HETATM    5  C   UNK     0      15.704   2.277 -19.643  0.00  0.00     0.042 A 
HETATM    6  C   UNK     0      14.541   3.182 -19.195  0.00  0.00     0.064 A 
HETATM    7  C   UNK     0      15.735   0.743 -19.766  0.00  0.00     0.080 A 
HETATM    8  C   UNK     0      17.067   0.138 -20.247  0.00  0.00     0.001 A 
HETATM    9  C   UNK     0      17.121   2.905 -20.060  0.00  0.00     0.067 A 
HETATM   10  C   UNK     0      14.713   4.775 -19.133  0.00  0.00     0.052 A 
HETATM   11  C   UNK     0      13.176   0.008 -18.983  0.00  0.00     0.146 A 
HETATM   12  C   UNK     0      17.327   4.494 -20.010  0.00  0.00     0.114 A 
HETATM   13  C   UNK     0      12.513   1.361 -18.666  0.00  0.00     0.232 A 
HETATM   14  C   UNK     0      16.115   5.436 -19.543  0.00  0.00     0.058 A 
HETATM   15  C   UNK     0      18.259   1.058 -20.569  0.00  0.00     0.022 A 
HETATM   16  C   UNK     0      17.207  -1.388 -20.406  0.00  0.00     0.028 A 
HETATM   17  C   UNK     0      19.591   0.453 -21.050  0.00  0.00     0.037 A 
HETATM   18  C   UNK     0      18.540  -1.992 -20.887  0.00  0.00     0.005 A 
HETATM   19  C   UNK     0      19.731  -1.072 -21.209  0.00  0.00     0.006 A 
ENDROOT
BRANCH  12  20
HETATM   20  N   UNK     0      18.681   5.113 -20.407  0.00  0.00    -0.117 N 
HETATM   21  O   UNK     0      19.012   5.352 -21.892  0.00  0.00    -0.532 OA
HETATM   22  O   UNK     0      19.703   5.491 -19.319  0.00  0.00    -0.532 OA
ENDBRANCH  12  20
TORSDOF 1
ENDMDL
MODEL 4
REMARK VINA RESULT:      -7.2     16.928     19.929
REMARK  1 active torsions:
REMARK  status: ('A' for Active; 'I' for Inactive)
REMARK    1  A    between atoms: N_7  and  C_15 
ROOT
HETATM    1 Cl   UNK     0     -10.667   2.255 -19.787  0.00  0.00    -0.143 Cl
HETATM    2  O   UNK     0      -5.591  -1.875 -23.492  0.00  0.00    -0.168 OA
HETATM    3  N   UNK     0      -7.429  -0.042 -23.249  0.00  0.00    -0.223 NA
HETATM    4  N   UNK     0      -7.442  -1.046 -19.937  0.00  0.00    -0.240 NA
HETATM    5  C   UNK     0      -8.976   0.920 -21.155  0.00  0.00     0.042 A 
HETATM    6  C   UNK     0      -8.496   0.872 -22.618  0.00  0.00     0.064 A 
HETATM    7  C   UNK     0      -8.507   0.067 -19.963  0.00  0.00     0.080 A 
HETATM    8  C   UNK     0      -9.193   0.366 -18.617  0.00  0.00     0.001 A 
HETATM    9  C   UNK     0     -10.111   1.957 -20.695  0.00  0.00     0.067 A 
HETATM   10  C   UNK     0      -9.118   1.857 -23.721  0.00  0.00     0.052 A 
HETATM   11  C   UNK     0      -6.584  -1.580 -21.099  0.00  0.00     0.146 A 
HETATM   12  C   UNK     0     -10.754   2.956 -21.772  0.00  0.00     0.114 A 
HETATM   13  C   UNK     0      -6.578  -1.133 -22.573  0.00  0.00     0.232 A 
HETATM   14  C   UNK     0     -10.254   2.905 -23.295  0.00  0.00     0.058 A 
HETATM   15  C   UNK     0     -10.273   1.460 -18.529  0.00  0.00     0.022 A 
HETATM   16  C   UNK     0      -8.799  -0.431 -17.358  0.00  0.00     0.028 A 
HETATM   17  C   UNK     0     -10.959   1.758 -17.183  0.00  0.00     0.037 A 
HETATM   18  C   UNK     0      -9.486  -0.131 -16.012  0.00  0.00     0.005 A 
HETATM   19  C   UNK     0     -10.565   0.963 -15.925  0.00  0.00     0.006 A 
ENDROOT
BRANCH  12  20
HETATM   20  N   UNK     0     -11.844   3.957 -21.346  0.00  0.00    -0.117 N 
HETATM   21  O   UNK     0     -13.330   3.569 -21.455  0.00  0.00    -0.532 OA
HETATM   22  O   UNK     0     -11.447   5.346 -20.812  0.00  0.00    -0.532 OA
ENDBRANCH  12  20
TORSDOF 1
ENDMDL
MODEL 5
REMARK VINA RESULT:      -7.0     41.251     43.604
REMARK  1 active torsions:
REMARK  status: ('A' for Active; 'I' for Inactive)
REMARK    1  A    between atoms: N_7  and  C_15 
ROOT
HETATM    1 Cl   UNK     0      12.284  -5.187 -35.186  0.00  0.00    -0.143 Cl
HETATM    2  O   UNK     0      11.418  -3.640 -27.878  0.00  0.00    -0.168 OA
HETATM    3  N   UNK     0      12.124  -3.137 -30.337  0.00  0.00    -0.223 NA
HETATM    4  N   UNK     0      10.945  -6.337 -30.920  0.00  0.00    -0.240 NA
HETATM    5  C   UNK     0      12.043  -4.542 -32.729  0.00  0.00     0.042 A 
HETATM    6  C   UNK     0      12.359  -3.318 -31.849  0.00  0.00     0.064 A 
HETATM    7  C   UNK     0      11.414  -5.885 -32.316  0.00  0.00     0.080 A 
HETATM    8  C   UNK     0      11.229  -6.912 -33.448  0.00  0.00     0.001 A 
HETATM    9  C   UNK     0      12.368  -4.532 -34.300  0.00  0.00     0.067 A 
HETATM   10  C   UNK     0      13.022  -2.000 -32.478  0.00  0.00     0.052 A 
HETATM   11  C   UNK     0      10.990  -5.557 -29.593  0.00  0.00     0.146 A 
HETATM   12  C   UNK     0      13.031  -3.230 -34.962  0.00  0.00     0.114 A 
HETATM   13  C   UNK     0      11.515  -4.133 -29.333  0.00  0.00     0.232 A 
HETATM   14  C   UNK     0      13.361  -1.956 -34.045  0.00  0.00     0.058 A 
HETATM   15  C   UNK     0      11.664  -6.564 -34.884  0.00  0.00     0.022 A 
HETATM   16  C   UNK     0      10.608  -8.289 -33.144  0.00  0.00     0.028 A 
HETATM   17  C   UNK     0      11.478  -7.591 -36.016  0.00  0.00     0.037 A 
HETATM   18  C   UNK     0      10.423  -9.317 -34.277  0.00  0.00     0.005 A 
HETATM   19  C   UNK     0      10.858  -8.967 -35.712  0.00  0.00     0.006 A 
ENDROOT
BRANCH  12  20
HETATM   20  N   UNK     0      13.350  -3.204 -36.469  0.00  0.00    -0.117 N 
HETATM   21  O   UNK     0      12.332  -2.612 -37.461  0.00  0.00    -0.532 OA
HETATM   22  O   UNK     0      14.686  -3.771 -36.983  0.00  0.00    -0.532 OA
ENDBRANCH  12  20
TORSDOF 1
ENDMDL
MODEL 6
REMARK VINA RESULT:      -7.0     25.085     27.648
REMARK  1 active torsions:
REMARK  status: ('A' for Active; 'I' for Inactive)
REMARK    1  A    between atoms: N_7  and  C_15 
ROOT
HETATM    1 Cl   UNK     0       3.669   7.173 -10.958  0.00  0.00    -0.143 Cl
HETATM    2  O   UNK     0       0.382   1.953 -15.258  0.00  0.00    -0.168 OA
HETATM    3  N   UNK     0       0.729   4.350 -14.294  0.00  0.00    -0.223 NA
HETATM    4  N   UNK     0       3.272   2.839 -12.500  0.00  0.00    -0.240 NA
HETATM    5  C   UNK     0       2.471   5.496 -12.463  0.00  0.00     0.042 A 
HETATM    6  C   UNK     0       1.306   5.517 -13.470  0.00  0.00     0.064 A 
HETATM    7  C   UNK     0       3.346   4.304 -12.031  0.00  0.00     0.080 A 
HETATM    8  C   UNK     0       4.439   4.619 -10.993  0.00  0.00     0.001 A 
HETATM    9  C   UNK     0       2.924   6.833 -11.700  0.00  0.00     0.067 A 
HETATM   10  C   UNK     0       0.514   6.875 -13.785  0.00  0.00     0.052 A 
HETATM   11  C   UNK     0       2.305   2.203 -13.516  0.00  0.00     0.146 A 
HETATM   12  C   UNK     0       2.153   8.208 -11.991  0.00  0.00     0.114 A 
HETATM   13  C   UNK     0       1.174   2.876 -14.315  0.00  0.00     0.232 A 
HETATM   14  C   UNK     0       0.941   8.230 -13.040  0.00  0.00     0.058 A 
HETATM   15  C   UNK     0       4.601   6.054 -10.456  0.00  0.00     0.022 A 
HETATM   16  C   UNK     0       5.371   3.500 -10.492  0.00  0.00     0.028 A 
HETATM   17  C   UNK     0       5.694   6.369  -9.418  0.00  0.00     0.037 A 
HETATM   18  C   UNK     0       6.464   3.816  -9.453  0.00  0.00     0.005 A 
HETATM   19  C   UNK     0       6.625   5.250  -8.917  0.00  0.00     0.006 A 
ENDROOT
BRANCH  12  20
HETATM   20  N   UNK     0       2.576   9.501 -11.267  0.00  0.00    -0.117 N 
HETATM   21  O   UNK     0       1.820   9.959 -10.006  0.00  0.00    -0.532 OA
HETATM   22  O   UNK     0       3.753  10.335 -11.804  0.00  0.00    -0.532 OA
ENDBRANCH  12  20
TORSDOF 1
ENDMDL
MODEL 7
REMARK VINA RESULT:      -6.7     25.315     26.914
REMARK  1 active torsions:
REMARK  status: ('A' for Active; 'I' for Inactive)
REMARK    1  A    between atoms: N_7  and  C_15 
ROOT
HETATM    1 Cl   UNK     0       2.165   7.382 -12.628  0.00  0.00    -0.143 Cl
HETATM    2  O   UNK     0       1.943   0.195 -10.425  0.00  0.00    -0.168 OA
HETATM    3  N   UNK     0       2.326   2.755 -10.115  0.00  0.00    -0.223 NA
HETATM    4  N   UNK     0       1.417   2.901 -13.451  0.00  0.00    -0.240 NA
HETATM    5  C   UNK     0       2.128   4.983 -11.759  0.00  0.00     0.042 A 
HETATM    6  C   UNK     0       2.413   4.261 -10.428  0.00  0.00     0.064 A 
HETATM    7  C   UNK     0       1.685   4.378 -13.103  0.00  0.00     0.080 A 
HETATM    8  C   UNK     0       1.482   5.381 -14.254  0.00  0.00     0.001 A 
HETATM    9  C   UNK     0       2.279   6.575 -11.880  0.00  0.00     0.067 A 
HETATM   10  C   UNK     0       2.869   5.082  -9.128  0.00  0.00     0.052 A 
HETATM   11  C   UNK     0       1.527   1.665 -12.538  0.00  0.00     0.146 A 
HETATM   12  C   UNK     0       2.733   7.427 -10.600  0.00  0.00     0.114 A 
HETATM   13  C   UNK     0       1.931   1.600 -11.054  0.00  0.00     0.232 A 
HETATM   14  C   UNK     0       3.030   6.675  -9.214  0.00  0.00     0.058 A 
HETATM   15  C   UNK     0       1.723   6.884 -14.016  0.00  0.00     0.022 A 
HETATM   16  C   UNK     0       1.039   4.882 -15.642  0.00  0.00     0.028 A 
HETATM   17  C   UNK     0       1.520   7.888 -15.166  0.00  0.00     0.037 A 
HETATM   18  C   UNK     0       0.837   5.887 -16.792  0.00  0.00     0.005 A 
HETATM   19  C   UNK     0       1.077   7.389 -16.554  0.00  0.00     0.006 A 
ENDROOT
BRANCH  12  20
HETATM   20  N   UNK     0       2.883   8.957 -10.699  0.00  0.00    -0.117 N 
HETATM   21  O   UNK     0       4.177   9.568 -11.268  0.00  0.00    -0.532 OA
HETATM   22  O   UNK     0       1.739   9.874 -10.231  0.00  0.00    -0.532 OA
ENDBRANCH  12  20
TORSDOF 1
ENDMDL
MODEL 8
REMARK VINA RESULT:      -6.7      2.809      4.698
REMARK  1 active torsions:
REMARK  status: ('A' for Active; 'I' for Inactive)
REMARK    1  A    between atoms: N_7  and  C_15 
ROOT
HETATM    1 Cl   UNK     0     -21.900  13.059 -15.449  0.00  0.00    -0.143 Cl
HETATM    2  O   UNK     0     -27.946  16.962 -17.632  0.00  0.00    -0.168 OA
HETATM    3  N   UNK     0     -25.550  15.968 -17.891  0.00  0.00    -0.223 NA
HETATM    4  N   UNK     0     -26.157  14.698 -14.730  0.00  0.00    -0.240 NA
HETATM    5  C   UNK     0     -23.889  14.410 -16.304  0.00  0.00     0.042 A 
HETATM    6  C   UNK     0     -24.250  15.204 -17.574  0.00  0.00     0.064 A 
HETATM    7  C   UNK     0     -24.737  14.185 -15.039  0.00  0.00     0.080 A 
HETATM    8  C   UNK     0     -24.079  13.335 -13.936  0.00  0.00     0.001 A 
HETATM    9  C   UNK     0     -22.468  13.678 -16.168  0.00  0.00     0.067 A 
HETATM   10  C   UNK     0     -23.216  15.320 -18.795  0.00  0.00     0.052 A 
HETATM   11  C   UNK     0     -27.078  15.562 -15.611  0.00  0.00     0.146 A 
HETATM   12  C   UNK     0     -21.410  13.774 -17.369  0.00  0.00     0.114 A 
HETATM   13  C   UNK     0     -26.808  16.127 -17.018  0.00  0.00     0.232 A 
HETATM   14  C   UNK     0     -21.787  14.600 -18.691  0.00  0.00     0.058 A 
HETATM   15  C   UNK     0     -22.661  12.772 -14.141  0.00  0.00     0.022 A 
HETATM   16  C   UNK     0     -24.841  13.048 -12.628  0.00  0.00     0.028 A 
HETATM   17  C   UNK     0     -22.003  11.922 -13.038  0.00  0.00     0.037 A 
HETATM   18  C   UNK     0     -24.182  12.198 -11.525  0.00  0.00     0.005 A 
HETATM   19  C   UNK     0     -22.764  11.635 -11.731  0.00  0.00     0.006 A 
ENDROOT
BRANCH  12  20
HETATM   20  N   UNK     0     -20.041  13.077 -17.254  0.00  0.00    -0.117 N 
HETATM   21  O   UNK     0     -18.808  13.874 -16.789  0.00  0.00    -0.532 OA
HETATM   22  O   UNK     0     -19.907  11.583 -17.603  0.00  0.00    -0.532 OA
ENDBRANCH  12  20
TORSDOF 1
ENDMDL
MODEL 9
REMARK VINA RESULT:      -6.6     25.677     27.343
REMARK  1 active torsions:
REMARK  status: ('A' for Active; 'I' for Inactive)
REMARK    1  A    between atoms: N_7  and  C_15 
ROOT
HETATM    1 Cl   UNK     0       2.846   4.843  -9.744  0.00  0.00    -0.143 Cl
HETATM    2  O   UNK     0       0.089   2.595 -16.369  0.00  0.00    -0.168 OA
HETATM    3  N   UNK     0       1.016   2.263 -13.955  0.00  0.00    -0.223 NA
HETATM    4  N   UNK     0       1.238   5.715 -13.983  0.00  0.00    -0.240 NA
HETATM    5  C   UNK     0       1.919   3.954 -11.949  0.00  0.00     0.042 A 
HETATM    6  C   UNK     0       1.586   2.580 -12.560  0.00  0.00     0.064 A 
HETATM    7  C   UNK     0       1.764   5.349 -12.582  0.00  0.00     0.080 A 
HETATM    8  C   UNK     0       2.192   6.535 -11.698  0.00  0.00     0.001 A 
HETATM    9  C   UNK     0       2.511   4.073 -10.463  0.00  0.00     0.067 A 
HETATM   10  C   UNK     0       1.822   1.230 -11.727  0.00  0.00     0.052 A 
HETATM   11  C   UNK     0       0.737   4.777 -15.096  0.00  0.00     0.146 A 
HETATM   12  C   UNK     0       2.760   2.743  -9.602  0.00  0.00     0.114 A 
HETATM   13  C   UNK     0       0.638   3.240 -15.084  0.00  0.00     0.232 A 
HETATM   14  C   UNK     0       2.413   1.312 -10.238  0.00  0.00     0.058 A 
HETATM   15  C   UNK     0       2.733   6.283 -10.279  0.00  0.00     0.022 A 
HETATM   16  C   UNK     0       2.079   7.975 -12.234  0.00  0.00     0.028 A 
HETATM   17  C   UNK     0       3.161   7.469  -9.395  0.00  0.00     0.037 A 
HETATM   18  C   UNK     0       2.507   9.162 -11.349  0.00  0.00     0.005 A 
HETATM   19  C   UNK     0       3.048   8.908  -9.931  0.00  0.00     0.006 A 
ENDROOT
BRANCH  12  20
HETATM   20  N   UNK     0       3.328   2.839  -8.173  0.00  0.00    -0.117 N 
HETATM   21  O   UNK     0       4.852   2.852  -7.950  0.00  0.00    -0.532 OA
HETATM   22  O   UNK     0       2.372   2.923  -6.969  0.00  0.00    -0.532 OA
ENDBRANCH  12  20
TORSDOF 1
ENDMDL
MODEL 10
REMARK VINA RESULT:      -6.4     40.644     43.450
REMARK  1 active torsions:
REMARK  status: ('A' for Active; 'I' for Inactive)
REMARK    1  A    between atoms: N_7  and  C_15 
ROOT
HETATM    1 Cl   UNK     0      12.269  -7.920 -31.599  0.00  0.00    -0.143 Cl
HETATM    2  O   UNK     0       9.705  -2.420 -36.041  0.00  0.00    -0.168 OA
HETATM    3  N   UNK     0      11.376  -4.279 -35.299  0.00  0.00    -0.223 NA
HETATM    4  N   UNK     0       9.149  -4.693 -32.683  0.00  0.00    -0.240 NA
HETATM    5  C   UNK     0      11.505  -6.072 -33.184  0.00  0.00     0.042 A 
HETATM    6  C   UNK     0      12.016  -5.418 -34.482  0.00  0.00     0.064 A 
HETATM    7  C   UNK     0      10.230  -5.750 -32.384  0.00  0.00     0.080 A 
HETATM    8  C   UNK     0      10.005  -6.596 -31.117  0.00  0.00     0.001 A 
HETATM    9  C   UNK     0      12.327  -7.257 -32.482  0.00  0.00     0.067 A 
HETATM   10  C   UNK     0      13.383  -5.903 -35.166  0.00  0.00     0.052 A 
HETATM   11  C   UNK     0       9.078  -3.698 -33.857  0.00  0.00     0.146 A 
HETATM   12  C   UNK     0      13.698  -7.767 -33.139  0.00  0.00     0.114 A 
HETATM   13  C   UNK     0      10.069  -3.514 -35.021  0.00  0.00     0.232 A 
HETATM   14  C   UNK     0      14.230  -7.085 -34.490  0.00  0.00     0.058 A 
HETATM   15  C   UNK     0      11.024  -7.681 -30.724  0.00  0.00     0.022 A 
HETATM   16  C   UNK     0       8.759  -6.356 -30.243  0.00  0.00     0.028 A 
HETATM   17  C   UNK     0      10.799  -8.527 -29.457  0.00  0.00     0.037 A 
HETATM   18  C   UNK     0       8.535  -7.202 -28.975  0.00  0.00     0.005 A 
HETATM   19  C   UNK     0       9.554  -8.287 -28.583  0.00  0.00     0.006 A 
ENDROOT
BRANCH  12  20
HETATM   20  N   UNK     0      14.500  -8.904 -32.476  0.00  0.00    -0.117 N 
HETATM   21  O   UNK     0      14.114 -10.371 -32.739  0.00  0.00    -0.532 OA
HETATM   22  O   UNK     0      15.686  -8.571 -31.552  0.00  0.00    -0.532 OA
ENDBRANCH  12  20
TORSDOF 1
ENDMDL
