MODEL 1
REMARK VINA RESULT:      -7.8      0.000      0.000
REMARK  7 active torsions:
REMARK  status: ('A' for Active; 'I' for Inactive)
REMARK    1  A    between atoms: N_3  and  C_7 
REMARK    2  A    between atoms: N_4  and  C_10 
REMARK    3  A    between atoms: C_7  and  C_11 
REMARK    4  A    between atoms: C_7  and  C_12 
REMARK    5  A    between atoms: C_10  and  C_13 
REMARK    6  A    between atoms: C_13  and  C_22 
REMARK    7  A    between atoms: C_22  and  C_25 
ROOT
HETATM    1  N   UNK     0     -22.559  12.779 -15.136  0.00  0.00    -0.345 N 
HETATM    2  N   UNK     0     -23.600  11.701 -12.445  0.00  0.00    -0.365 N 
HETATM    3  C   UNK     0     -21.817  13.122 -13.830  0.00  0.00     0.125 A 
HETATM    4  C   UNK     0     -23.820  11.897 -15.095  0.00  0.00     0.125 A 
HETATM    5  C   UNK     0     -22.338  12.583 -12.485  0.00  0.00     0.122 A 
HETATM    6  C   UNK     0     -24.341  11.358 -13.750  0.00  0.00     0.122 A 
ENDROOT
BRANCH   1   7
HETATM    7  C   UNK     0     -22.039  13.318 -16.481  0.00  0.00     0.040 C 
BRANCH   7   8
HETATM    8  C   UNK     0     -20.590  13.030 -16.917  0.00  0.00    -0.029 A 
HETATM    9  C   UNK     0     -20.253  11.718 -17.651  0.00  0.00     0.030 A 
HETATM   10  C   UNK     0     -18.805  11.430 -18.087  0.00  0.00     0.056 A 
HETATM   11  C   UNK     0     -17.693  12.454 -17.790  0.00  0.00     0.096 A 
HETATM   12  F   UNK     0     -16.244  12.166 -18.226  0.00  0.00    -0.213 F 
HETATM   13  C   UNK     0     -18.030  13.765 -17.056  0.00  0.00     0.056 A 
HETATM   14  C   UNK     0     -19.479  14.053 -16.620  0.00  0.00     0.030 A 
ENDBRANCH   7   8
BRANCH   7  15
HETATM   15  C   UNK     0     -22.966  14.144 -17.390  0.00  0.00    -0.029 A 
HETATM   16  C   UNK     0     -23.028  13.848 -18.900  0.00  0.00     0.030 A 
HETATM   17  C   UNK     0     -23.956  14.675 -19.810  0.00  0.00     0.056 A 
HETATM   18  C   UNK     0     -24.822  15.798 -19.210  0.00  0.00     0.096 A 
HETATM   19  F   UNK     0     -25.750  16.624 -20.120  0.00  0.00    -0.213 F 
HETATM   20  C   UNK     0     -24.760  16.094 -17.700  0.00  0.00     0.056 A 
HETATM   21  C   UNK     0     -23.832  15.267 -16.790  0.00  0.00     0.030 A 
ENDBRANCH   7  15
ENDBRANCH   1   7
BRANCH   2  22
HETATM   22  C   UNK     0     -24.120  11.162 -11.099  0.00  0.00     0.097 C 
BRANCH  22  23
HETATM   23  C   UNK     0     -23.938   9.675 -10.743  0.00  0.00     0.024 C 
BRANCH  23  24
HETATM   24  C   UNK     0     -22.698   9.219  -9.951  0.00  0.00     0.002 C 
BRANCH  24  25
HETATM   25  C   UNK     0     -22.607   9.493  -8.438  0.00  0.00     0.000 A 
HETATM   26  C   UNK     0     -21.294  10.019  -7.829  0.00  0.00     0.000 A 
HETATM   27  C   UNK     0     -21.203  10.293  -6.316  0.00  0.00     0.000 A 
HETATM   28  C   UNK     0     -22.425  10.041  -5.412  0.00  0.00     0.000 A 
HETATM   29  C   UNK     0     -23.738   9.515  -6.022  0.00  0.00     0.000 A 
HETATM   30  C   UNK     0     -23.829   9.242  -7.535  0.00  0.00     0.000 A 
ENDBRANCH  24  25
ENDBRANCH  23  24
ENDBRANCH  22  23
ENDBRANCH   2  22
TORSDOF 7
ENDMDL
MODEL 2
REMARK VINA RESULT:      -7.7      0.343      4.700
REMARK  7 active torsions:
REMARK  status: ('A' for Active; 'I' for Inactive)
REMARK    1  A    between atoms: N_3  and  C_7 
REMARK    2  A    between atoms: N_4  and  C_10 
REMARK    3  A    between atoms: C_7  and  C_11 
REMARK    4  A    between atoms: C_7  and  C_12 
REMARK    5  A    between atoms: C_10  and  C_13 
REMARK    6  A    between atoms: C_13  and  C_22 
REMARK    7  A    between atoms: C_22  and  C_25 
ROOT
HETATM    1  N   UNK     0     -22.372  12.733 -15.154  0.00  0.00    -0.345 N 
HETATM    2  N   UNK     0     -23.423  11.674 -12.460  0.00  0.00    -0.365 N 
HETATM    3  C   UNK     0     -21.413  12.585 -13.958  0.00  0.00     0.125 A 
HETATM    4  C   UNK     0     -23.856  12.352 -15.003  0.00  0.00     0.125 A 
HETATM    5  C   UNK     0     -21.939  12.055 -12.611  0.00  0.00     0.122 A 
HETATM    6  C   UNK     0     -24.381  11.823 -13.656  0.00  0.00     0.122 A 
ENDROOT
BRANCH   1   7
HETATM    7  C   UNK     0     -21.846  13.263 -16.502  0.00  0.00     0.040 C 
BRANCH   7   8
HETATM    8  C   UNK     0     -22.772  14.082 -17.421  0.00  0.00    -0.029 A 
HETATM    9  C   UNK     0     -23.490  15.331 -16.876  0.00  0.00     0.030 A 
HETATM   10  C   UNK     0     -24.415  16.149 -17.795  0.00  0.00     0.056 A 
HETATM   11  C   UNK     0     -24.623  15.719 -19.259  0.00  0.00     0.096 A 
HETATM   12  F   UNK     0     -25.548  16.538 -20.179  0.00  0.00    -0.213 F 
HETATM   13  C   UNK     0     -23.905  14.470 -19.804  0.00  0.00     0.056 A 
HETATM   14  C   UNK     0     -22.979  13.651 -18.885  0.00  0.00     0.030 A 
ENDBRANCH   7   8
BRANCH   7  15
HETATM   15  C   UNK     0     -20.396  12.974 -16.929  0.00  0.00    -0.029 A 
HETATM   16  C   UNK     0     -19.341  14.096 -16.882  0.00  0.00     0.030 A 
HETATM   17  C   UNK     0     -17.890  13.807 -17.310  0.00  0.00     0.056 A 
HETATM   18  C   UNK     0     -17.494  12.397 -17.785  0.00  0.00     0.096 A 
HETATM   19  F   UNK     0     -16.042  12.109 -18.213  0.00  0.00    -0.213 F 
HETATM   20  C   UNK     0     -18.548  11.276 -17.833  0.00  0.00     0.056 A 
HETATM   21  C   UNK     0     -19.999  11.564 -17.405  0.00  0.00     0.030 A 
ENDBRANCH   7  15
ENDBRANCH   1   7
BRANCH   2  22
HETATM   22  C   UNK     0     -23.949  11.145 -11.113  0.00  0.00     0.097 C 
BRANCH  22  23
HETATM   23  C   UNK     0     -24.111   9.630 -10.891  0.00  0.00     0.024 C 
BRANCH  23  24
HETATM   24  C   UNK     0     -23.089   8.863 -10.032  0.00  0.00     0.002 C 
BRANCH  24  25
HETATM   25  C   UNK     0     -22.824   9.299  -8.578  0.00  0.00     0.000 A 
HETATM   26  C   UNK     0     -21.467   9.917  -8.195  0.00  0.00     0.000 A 
HETATM   27  C   UNK     0     -21.203  10.353  -6.741  0.00  0.00     0.000 A 
HETATM   28  C   UNK     0     -22.295  10.170  -5.671  0.00  0.00     0.000 A 
HETATM   29  C   UNK     0     -23.653   9.552  -6.055  0.00  0.00     0.000 A 
HETATM   30  C   UNK     0     -23.917   9.116  -7.508  0.00  0.00     0.000 A 
ENDBRANCH  24  25
ENDBRANCH  23  24
ENDBRANCH  22  23
ENDBRANCH   2  22
TORSDOF 7
ENDMDL
MODEL 3
REMARK VINA RESULT:      -7.6     40.055     43.613
REMARK  7 active torsions:
REMARK  status: ('A' for Active; 'I' for Inactive)
REMARK    1  A    between atoms: N_3  and  C_7 
REMARK    2  A    between atoms: N_4  and  C_10 
REMARK    3  A    between atoms: C_7  and  C_11 
REMARK    4  A    between atoms: C_7  and  C_12 
REMARK    5  A    between atoms: C_10  and  C_13 
REMARK    6  A    between atoms: C_13  and  C_22 
REMARK    7  A    between atoms: C_22  and  C_25 
ROOT
HETATM    1  N   UNK     0      16.486  15.994   3.754  0.00  0.00    -0.345 N 
HETATM    2  N   UNK     0      19.522  16.394   3.423  0.00  0.00    -0.365 N 
HETATM    3  C   UNK     0      17.129  17.346   4.118  0.00  0.00     0.125 A 
HETATM    4  C   UNK     0      17.361  14.843   3.225  0.00  0.00     0.125 A 
HETATM    5  C   UNK     0      18.647  17.546   3.952  0.00  0.00     0.122 A 
HETATM    6  C   UNK     0      18.879  15.043   3.059  0.00  0.00     0.122 A 
ENDROOT
BRANCH   1   7
HETATM    7  C   UNK     0      14.968  15.794   3.920  0.00  0.00     0.040 C 
BRANCH   7   8
HETATM    8  C   UNK     0      14.412  15.152   5.205  0.00  0.00    -0.029 A 
HETATM    9  C   UNK     0      15.361  14.813   6.369  0.00  0.00     0.030 A 
HETATM   10  C   UNK     0      14.806  14.172   7.654  0.00  0.00     0.056 A 
HETATM   11  C   UNK     0      13.300  13.870   7.775  0.00  0.00     0.096 A 
HETATM   12  F   UNK     0      12.744  13.228   9.060  0.00  0.00    -0.213 F 
HETATM   13  C   UNK     0      12.351  14.209   6.611  0.00  0.00     0.056 A 
HETATM   14  C   UNK     0      12.907  14.850   5.326  0.00  0.00     0.030 A 
ENDBRANCH   7   8
BRANCH   7  15
HETATM   15  C   UNK     0      14.007  16.235   2.802  0.00  0.00    -0.029 A 
HETATM   16  C   UNK     0      13.211  17.546   2.943  0.00  0.00     0.030 A 
HETATM   17  C   UNK     0      12.249  17.987   1.824  0.00  0.00     0.056 A 
HETATM   18  C   UNK     0      12.082  17.118   0.564  0.00  0.00     0.096 A 
HETATM   19  F   UNK     0      11.120  17.559  -0.555  0.00  0.00    -0.213 F 
HETATM   20  C   UNK     0      12.878  15.807   0.423  0.00  0.00     0.056 A 
HETATM   21  C   UNK     0      13.840  15.365   1.542  0.00  0.00     0.030 A 
ENDBRANCH   7  15
ENDBRANCH   1   7
BRANCH   2  22
HETATM   22  C   UNK     0      21.040  16.594   3.257  0.00  0.00     0.097 C 
BRANCH  22  23
HETATM   23  C   UNK     0      21.585  17.386   2.055  0.00  0.00     0.024 C 
BRANCH  23  24
HETATM   24  C   UNK     0      21.098  17.058   0.631  0.00  0.00     0.002 C 
BRANCH  24  25
HETATM   25  C   UNK     0      21.815  15.977  -0.198  0.00  0.00     0.000 A 
HETATM   26  C   UNK     0      21.816  14.513   0.282  0.00  0.00     0.000 A 
HETATM   27  C   UNK     0      22.533  13.432  -0.548  0.00  0.00     0.000 A 
HETATM   28  C   UNK     0      23.249  13.813  -1.858  0.00  0.00     0.000 A 
HETATM   29  C   UNK     0      23.247  15.276  -2.338  0.00  0.00     0.000 A 
HETATM   30  C   UNK     0      22.530  16.358  -1.508  0.00  0.00     0.000 A 
ENDBRANCH  24  25
ENDBRANCH  23  24
ENDBRANCH  22  23
ENDBRANCH   2  22
TORSDOF 7
ENDMDL
MODEL 4
REMARK VINA RESULT:      -7.4     17.085     21.350
REMARK  7 active torsions:
REMARK  status: ('A' for Active; 'I' for Inactive)
REMARK    1  A    between atoms: N_3  and  C_7 
REMARK    2  A    between atoms: N_4  and  C_10 
REMARK    3  A    between atoms: C_7  and  C_11 
REMARK    4  A    between atoms: C_7  and  C_12 
REMARK    5  A    between atoms: C_10  and  C_13 
REMARK    6  A    between atoms: C_13  and  C_22 
REMARK    7  A    between atoms: C_22  and  C_25 
ROOT
HETATM    1  N   UNK     0      -8.579  -0.969 -20.958  0.00  0.00    -0.345 N 
HETATM    2  N   UNK     0      -8.530   1.715 -22.468  0.00  0.00    -0.365 N 
HETATM    3  C   UNK     0      -9.188  -0.868 -22.369  0.00  0.00     0.125 A 
HETATM    4  C   UNK     0      -7.945   0.271 -20.303  0.00  0.00     0.125 A 
HETATM    5  C   UNK     0      -9.164   0.474 -23.124  0.00  0.00     0.122 A 
HETATM    6  C   UNK     0      -7.921   1.614 -21.058  0.00  0.00     0.122 A 
ENDROOT
BRANCH   1   7
HETATM    7  C   UNK     0      -8.603  -2.311 -20.203  0.00  0.00     0.040 C 
BRANCH   7   8
HETATM    8  C   UNK     0      -9.946  -3.004 -19.907  0.00  0.00    -0.029 A 
HETATM    9  C   UNK     0     -10.810  -2.534 -18.722  0.00  0.00     0.030 A 
HETATM   10  C   UNK     0     -12.153  -3.226 -18.426  0.00  0.00     0.056 A 
HETATM   11  C   UNK     0     -12.632  -4.389 -19.315  0.00  0.00     0.096 A 
HETATM   12  F   UNK     0     -13.976  -5.082 -19.018  0.00  0.00    -0.213 F 
HETATM   13  C   UNK     0     -11.768  -4.859 -20.499  0.00  0.00     0.056 A 
HETATM   14  C   UNK     0     -10.425  -4.167 -20.796  0.00  0.00     0.030 A 
ENDBRANCH   7   8
BRANCH   7  15
HETATM   15  C   UNK     0      -7.285  -2.961 -19.745  0.00  0.00    -0.029 A 
HETATM   16  C   UNK     0      -5.977  -2.670 -20.506  0.00  0.00     0.030 A 
HETATM   17  C   UNK     0      -4.658  -3.319 -20.047  0.00  0.00     0.056 A 
HETATM   18  C   UNK     0      -4.646  -4.260 -18.828  0.00  0.00     0.096 A 
HETATM   19  F   UNK     0      -3.327  -4.909 -18.370  0.00  0.00    -0.213 F 
HETATM   20  C   UNK     0      -5.953  -4.551 -18.067  0.00  0.00     0.056 A 
HETATM   21  C   UNK     0      -7.272  -3.901 -18.526  0.00  0.00     0.030 A 
ENDBRANCH   7  15
ENDBRANCH   1   7
BRANCH   2  22
HETATM   22  C   UNK     0      -8.506   3.057 -23.222  0.00  0.00     0.097 C 
BRANCH  22  23
HETATM   23  C   UNK     0      -9.826   3.766 -23.575  0.00  0.00     0.024 C 
BRANCH  23  24
HETATM   24  C   UNK     0     -10.801   4.180 -22.457  0.00  0.00     0.002 C 
BRANCH  24  25
HETATM   25  C   UNK     0     -10.943   3.306 -21.197  0.00  0.00     0.000 A 
HETATM   26  C   UNK     0     -10.300   3.755 -19.872  0.00  0.00     0.000 A 
HETATM   27  C   UNK     0     -10.441   2.881 -18.611  0.00  0.00     0.000 A 
HETATM   28  C   UNK     0     -11.226   1.557 -18.676  0.00  0.00     0.000 A 
HETATM   29  C   UNK     0     -11.870   1.108 -20.001  0.00  0.00     0.000 A 
HETATM   30  C   UNK     0     -11.728   1.982 -21.262  0.00  0.00     0.000 A 
ENDBRANCH  24  25
ENDBRANCH  23  24
ENDBRANCH  22  23
ENDBRANCH   2  22
TORSDOF 7
ENDMDL
MODEL 5
REMARK VINA RESULT:      -7.3     38.632     41.116
REMARK  7 active torsions:
REMARK  status: ('A' for Active; 'I' for Inactive)
REMARK    1  A    between atoms: N_3  and  C_7 
REMARK    2  A    between atoms: N_4  and  C_10 
REMARK    3  A    between atoms: C_7  and  C_11 
REMARK    4  A    between atoms: C_7  and  C_12 
REMARK    5  A    between atoms: C_10  and  C_13 
REMARK    6  A    between atoms: C_13  and  C_22 
REMARK    7  A    between atoms: C_22  and  C_25 
ROOT
HETATM    1  N   UNK     0      13.504   6.907 -32.428  0.00  0.00    -0.345 N 
HETATM    2  N   UNK     0      15.468   9.280 -32.368  0.00  0.00    -0.365 N 
HETATM    3  C   UNK     0      13.092   8.231 -31.757  0.00  0.00     0.125 A 
HETATM    4  C   UNK     0      14.898   6.770 -33.068  0.00  0.00     0.125 A 
HETATM    5  C   UNK     0      14.074   9.418 -31.727  0.00  0.00     0.122 A 
HETATM    6  C   UNK     0      15.879   7.957 -33.038  0.00  0.00     0.122 A 
ENDROOT
BRANCH   1   7
HETATM    7  C   UNK     0      12.523   5.721 -32.458  0.00  0.00     0.040 C 
BRANCH   7   8
HETATM    8  C   UNK     0      12.310   4.866 -31.194  0.00  0.00    -0.029 A 
HETATM    9  C   UNK     0      12.891   5.328 -29.845  0.00  0.00     0.030 A 
HETATM   10  C   UNK     0      12.678   4.473 -28.582  0.00  0.00     0.056 A 
HETATM   11  C   UNK     0      11.884   3.156 -28.668  0.00  0.00     0.096 A 
HETATM   12  F   UNK     0      11.671   2.301 -27.405  0.00  0.00    -0.213 F 
HETATM   13  C   UNK     0      11.303   2.694 -30.018  0.00  0.00     0.056 A 
HETATM   14  C   UNK     0      11.516   3.550 -31.281  0.00  0.00     0.030 A 
ENDBRANCH   7   8
BRANCH   7  15
HETATM   15  C   UNK     0      11.755   5.390 -33.750  0.00  0.00    -0.029 A 
HETATM   16  C   UNK     0      12.405   4.499 -34.825  0.00  0.00     0.030 A 
HETATM   17  C   UNK     0      11.637   4.167 -36.118  0.00  0.00     0.056 A 
HETATM   18  C   UNK     0      10.218   4.726 -36.336  0.00  0.00     0.096 A 
HETATM   19  F   UNK     0       9.450   4.395 -37.629  0.00  0.00    -0.213 F 
HETATM   20  C   UNK     0       9.568   5.617 -35.261  0.00  0.00     0.056 A 
HETATM   21  C   UNK     0      10.336   5.949 -33.968  0.00  0.00     0.030 A 
ENDBRANCH   7  15
ENDBRANCH   1   7
BRANCH   2  22
HETATM   22  C   UNK     0      16.449  10.466 -32.338  0.00  0.00     0.097 C 
BRANCH  22  23
HETATM   23  C   UNK     0      17.320  10.714 -31.093  0.00  0.00     0.024 C 
BRANCH  23  24
HETATM   24  C   UNK     0      18.161  11.999 -30.984  0.00  0.00     0.002 C 
BRANCH  24  25
HETATM   25  C   UNK     0      17.886  13.006 -29.851  0.00  0.00     0.000 A 
HETATM   26  C   UNK     0      16.437  13.381 -29.490  0.00  0.00     0.000 A 
HETATM   27  C   UNK     0      16.161  14.388 -28.357  0.00  0.00     0.000 A 
HETATM   28  C   UNK     0      17.336  15.018 -27.585  0.00  0.00     0.000 A 
HETATM   29  C   UNK     0      18.785  14.643 -27.946  0.00  0.00     0.000 A 
HETATM   30  C   UNK     0      19.060  13.636 -29.079  0.00  0.00     0.000 A 
ENDBRANCH  24  25
ENDBRANCH  23  24
ENDBRANCH  22  23
ENDBRANCH   2  22
TORSDOF 7
ENDMDL
MODEL 6
REMARK VINA RESULT:      -7.3     26.356     29.885
REMARK  7 active torsions:
REMARK  status: ('A' for Active; 'I' for Inactive)
REMARK    1  A    between atoms: N_3  and  C_7 
REMARK    2  A    between atoms: N_4  and  C_10 
REMARK    3  A    between atoms: C_7  and  C_11 
REMARK    4  A    between atoms: C_7  and  C_12 
REMARK    5  A    between atoms: C_10  and  C_13 
REMARK    6  A    between atoms: C_13  and  C_22 
REMARK    7  A    between atoms: C_22  and  C_25 
ROOT
HETATM    1  N   UNK     0       3.772   1.640 -11.961  0.00  0.00    -0.345 N 
HETATM    2  N   UNK     0       4.008  -0.705 -13.945  0.00  0.00    -0.365 N 
HETATM    3  C   UNK     0       3.531   1.876 -13.464  0.00  0.00     0.125 A 
HETATM    4  C   UNK     0       4.132   0.233 -11.451  0.00  0.00     0.125 A 
HETATM    5  C   UNK     0       3.649   0.703 -14.456  0.00  0.00     0.122 A 
HETATM    6  C   UNK     0       4.249  -0.940 -12.443  0.00  0.00     0.122 A 
ENDROOT
BRANCH   1   7
HETATM    7  C   UNK     0       3.655   2.812 -10.969  0.00  0.00     0.040 C 
BRANCH   7   8
HETATM    8  C   UNK     0       2.618   2.757  -9.831  0.00  0.00    -0.029 A 
HETATM    9  C   UNK     0       1.215   2.179 -10.095  0.00  0.00     0.030 A 
HETATM   10  C   UNK     0       0.179   2.124  -8.959  0.00  0.00     0.056 A 
HETATM   11  C   UNK     0       0.545   2.646  -7.557  0.00  0.00     0.096 A 
HETATM   12  F   UNK     0      -0.492   2.591  -6.419  0.00  0.00    -0.213 F 
HETATM   13  C   UNK     0       1.948   3.224  -7.293  0.00  0.00     0.056 A 
HETATM   14  C   UNK     0       2.985   3.279  -8.430  0.00  0.00     0.030 A 
ENDBRANCH   7   8
BRANCH   7  15
HETATM   15  C   UNK     0       4.573   4.039 -11.115  0.00  0.00    -0.029 A 
HETATM   16  C   UNK     0       6.012   3.993 -10.569  0.00  0.00     0.030 A 
HETATM   17  C   UNK     0       6.932   5.220 -10.714  0.00  0.00     0.056 A 
HETATM   18  C   UNK     0       6.411   6.494 -11.406  0.00  0.00     0.096 A 
HETATM   19  F   UNK     0       7.330   7.721 -11.551  0.00  0.00    -0.213 F 
HETATM   20  C   UNK     0       4.972   6.540 -11.952  0.00  0.00     0.056 A 
HETATM   21  C   UNK     0       4.053   5.313 -11.806  0.00  0.00     0.030 A 
ENDBRANCH   7  15
ENDBRANCH   1   7
BRANCH   2  22
HETATM   22  C   UNK     0       4.126  -1.877 -14.937  0.00  0.00     0.097 C 
BRANCH  22  23
HETATM   23  C   UNK     0       4.893  -3.150 -14.536  0.00  0.00     0.024 C 
BRANCH  23  24
HETATM   24  C   UNK     0       4.243  -4.175 -13.589  0.00  0.00     0.002 C 
BRANCH  24  25
HETATM   25  C   UNK     0       5.084  -4.847 -12.487  0.00  0.00     0.000 A 
HETATM   26  C   UNK     0       6.061  -5.982 -12.848  0.00  0.00     0.000 A 
HETATM   27  C   UNK     0       6.902  -6.653 -11.746  0.00  0.00     0.000 A 
HETATM   28  C   UNK     0       6.767  -6.189 -10.283  0.00  0.00     0.000 A 
HETATM   29  C   UNK     0       5.791  -5.054  -9.923  0.00  0.00     0.000 A 
HETATM   30  C   UNK     0       4.949  -4.383 -11.025  0.00  0.00     0.000 A 
ENDBRANCH  24  25
ENDBRANCH  23  24
ENDBRANCH  22  23
ENDBRANCH   2  22
TORSDOF 7
ENDMDL
MODEL 7
REMARK VINA RESULT:      -7.1     44.921     47.726
REMARK  7 active torsions:
REMARK  status: ('A' for Active; 'I' for Inactive)
REMARK    1  A    between atoms: N_3  and  C_7 
REMARK    2  A    between atoms: N_4  and  C_10 
REMARK    3  A    between atoms: C_7  and  C_11 
REMARK    4  A    between atoms: C_7  and  C_12 
REMARK    5  A    between atoms: C_10  and  C_13 
REMARK    6  A    between atoms: C_13  and  C_22 
REMARK    7  A    between atoms: C_22  and  C_25 
ROOT
HETATM    1  N   UNK     0      -5.345 -32.288  -9.057  0.00  0.00    -0.345 N 
HETATM    2  N   UNK     0      -6.242 -32.792  -6.154  0.00  0.00    -0.365 N 
HETATM    3  C   UNK     0      -5.413 -31.118  -8.058  0.00  0.00     0.125 A 
HETATM    4  C   UNK     0      -5.726 -33.709  -8.605  0.00  0.00     0.125 A 
HETATM    5  C   UNK     0      -5.861 -31.370  -6.607  0.00  0.00     0.122 A 
HETATM    6  C   UNK     0      -6.174 -33.962  -7.153  0.00  0.00     0.122 A 
ENDROOT
BRANCH   1   7
HETATM    7  C   UNK     0      -4.897 -32.036 -10.509  0.00  0.00     0.040 C 
BRANCH   7   8
HETATM    8  C   UNK     0      -5.948 -31.898 -11.627  0.00  0.00    -0.029 A 
HETATM    9  C   UNK     0      -5.506 -31.881 -13.102  0.00  0.00     0.030 A 
HETATM   10  C   UNK     0      -6.556 -31.743 -14.219  0.00  0.00     0.056 A 
HETATM   11  C   UNK     0      -8.049 -31.623 -13.861  0.00  0.00     0.096 A 
HETATM   12  F   UNK     0      -9.100 -31.485 -14.979  0.00  0.00    -0.213 F 
HETATM   13  C   UNK     0      -8.492 -31.640 -12.386  0.00  0.00     0.056 A 
HETATM   14  C   UNK     0      -7.441 -31.778 -11.269  0.00  0.00     0.030 A 
ENDBRANCH   7   8
BRANCH   7  15
HETATM   15  C   UNK     0      -3.399 -31.921 -10.843  0.00  0.00    -0.029 A 
HETATM   16  C   UNK     0      -2.562 -33.194 -11.073  0.00  0.00     0.030 A 
HETATM   17  C   UNK     0      -1.063 -33.080 -11.408  0.00  0.00     0.056 A 
HETATM   18  C   UNK     0      -0.400 -31.693 -11.512  0.00  0.00     0.096 A 
HETATM   19  F   UNK     0       1.099 -31.579 -11.847  0.00  0.00    -0.213 F 
HETATM   20  C   UNK     0      -1.238 -30.421 -11.283  0.00  0.00     0.056 A 
HETATM   21  C   UNK     0      -2.737 -30.535 -10.948  0.00  0.00     0.030 A 
ENDBRANCH   7  15
ENDBRANCH   1   7
BRANCH   2  22
HETATM   22  C   UNK     0      -6.690 -33.045  -4.703  0.00  0.00     0.097 C 
BRANCH  22  23
HETATM   23  C   UNK     0      -7.962 -33.864  -4.421  0.00  0.00     0.024 C 
BRANCH  23  24
HETATM   24  C   UNK     0      -9.129 -33.846  -5.426  0.00  0.00     0.002 C 
BRANCH  24  25
HETATM   25  C   UNK     0      -9.824 -32.516  -5.775  0.00  0.00     0.000 A 
HETATM   26  C   UNK     0     -10.842 -31.900  -4.797  0.00  0.00     0.000 A 
HETATM   27  C   UNK     0     -11.536 -30.570  -5.146  0.00  0.00     0.000 A 
HETATM   28  C   UNK     0     -11.214 -29.857  -6.472  0.00  0.00     0.000 A 
HETATM   29  C   UNK     0     -10.196 -30.473  -7.450  0.00  0.00     0.000 A 
HETATM   30  C   UNK     0      -9.501 -31.803  -7.101  0.00  0.00     0.000 A 
ENDBRANCH  24  25
ENDBRANCH  23  24
ENDBRANCH  22  23
ENDBRANCH   2  22
TORSDOF 7
ENDMDL
MODEL 8
REMARK VINA RESULT:      -7.0     17.442     21.232
REMARK  7 active torsions:
REMARK  status: ('A' for Active; 'I' for Inactive)
REMARK    1  A    between atoms: N_3  and  C_7 
REMARK    2  A    between atoms: N_4  and  C_10 
REMARK    3  A    between atoms: C_7  and  C_11 
REMARK    4  A    between atoms: C_7  and  C_12 
REMARK    5  A    between atoms: C_10  and  C_13 
REMARK    6  A    between atoms: C_13  and  C_22 
REMARK    7  A    between atoms: C_22  and  C_25 
ROOT
HETATM    1  N   UNK     0     -10.475  26.284 -20.318  0.00  0.00    -0.345 N 
HETATM    2  N   UNK     0      -7.524  26.556 -19.479  0.00  0.00    -0.365 N 
HETATM    3  C   UNK     0      -9.498  25.115 -20.547  0.00  0.00     0.125 A 
HETATM    4  C   UNK     0      -9.976  27.588 -19.670  0.00  0.00     0.125 A 
HETATM    5  C   UNK     0      -8.023  25.251 -20.127  0.00  0.00     0.122 A 
HETATM    6  C   UNK     0      -8.500  27.724 -19.251  0.00  0.00     0.122 A 
ENDROOT
BRANCH   1   7
HETATM    7  C   UNK     0     -11.950  26.148 -20.737  0.00  0.00     0.040 C 
BRANCH   7   8
HETATM    8  C   UNK     0     -13.055  26.815 -19.896  0.00  0.00    -0.029 A 
HETATM    9  C   UNK     0     -13.778  28.066 -20.428  0.00  0.00     0.030 A 
HETATM   10  C   UNK     0     -14.882  28.733 -19.587  0.00  0.00     0.056 A 
HETATM   11  C   UNK     0     -15.263  28.149 -18.214  0.00  0.00     0.096 A 
HETATM   12  F   UNK     0     -16.367  28.816 -17.373  0.00  0.00    -0.213 F 
HETATM   13  C   UNK     0     -14.539  26.898 -17.682  0.00  0.00     0.056 A 
HETATM   14  C   UNK     0     -13.435  26.231 -18.523  0.00  0.00     0.030 A 
ENDBRANCH   7   8
BRANCH   7  15
HETATM   15  C   UNK     0     -12.322  25.345 -21.997  0.00  0.00    -0.029 A 
HETATM   16  C   UNK     0     -12.422  23.809 -21.930  0.00  0.00     0.030 A 
HETATM   17  C   UNK     0     -12.794  23.006 -23.190  0.00  0.00     0.056 A 
HETATM   18  C   UNK     0     -13.065  23.738 -24.518  0.00  0.00     0.096 A 
HETATM   19  F   UNK     0     -13.437  22.934 -25.778  0.00  0.00    -0.213 F 
HETATM   20  C   UNK     0     -12.965  25.273 -24.585  0.00  0.00     0.056 A 
HETATM   21  C   UNK     0     -12.593  26.077 -23.325  0.00  0.00     0.030 A 
ENDBRANCH   7  15
ENDBRANCH   1   7
BRANCH   2  22
HETATM   22  C   UNK     0      -6.048  26.692 -19.060  0.00  0.00     0.097 C 
BRANCH  22  23
HETATM   23  C   UNK     0      -4.935  26.592 -20.118  0.00  0.00     0.024 C 
BRANCH  23  24
HETATM   24  C   UNK     0      -4.265  25.236 -20.406  0.00  0.00     0.002 C 
BRANCH  24  25
HETATM   25  C   UNK     0      -4.056  24.773 -21.860  0.00  0.00     0.000 A 
HETATM   26  C   UNK     0      -5.013  25.256 -22.966  0.00  0.00     0.000 A 
HETATM   27  C   UNK     0      -4.805  24.793 -24.420  0.00  0.00     0.000 A 
HETATM   28  C   UNK     0      -3.640  23.847 -24.768  0.00  0.00     0.000 A 
HETATM   29  C   UNK     0      -2.684  23.364 -23.662  0.00  0.00     0.000 A 
HETATM   30  C   UNK     0      -2.892  23.827 -22.208  0.00  0.00     0.000 A 
ENDBRANCH  24  25
ENDBRANCH  23  24
ENDBRANCH  22  23
ENDBRANCH   2  22
TORSDOF 7
ENDMDL
MODEL 9
REMARK VINA RESULT:      -7.0      1.947      2.857
REMARK  7 active torsions:
REMARK  status: ('A' for Active; 'I' for Inactive)
REMARK    1  A    between atoms: N_3  and  C_7 
REMARK    2  A    between atoms: N_4  and  C_10 
REMARK    3  A    between atoms: C_7  and  C_11 
REMARK    4  A    between atoms: C_7  and  C_12 
REMARK    5  A    between atoms: C_10  and  C_13 
REMARK    6  A    between atoms: C_13  and  C_22 
REMARK    7  A    between atoms: C_22  and  C_25 
ROOT
HETATM    1  N   UNK     0     -24.041  14.516 -15.433  0.00  0.00    -0.345 N 
HETATM    2  N   UNK     0     -25.151  14.164 -12.581  0.00  0.00    -0.365 N 
HETATM    3  C   UNK     0     -24.251  13.103 -14.857  0.00  0.00     0.125 A 
HETATM    4  C   UNK     0     -24.386  15.752 -14.583  0.00  0.00     0.125 A 
HETATM    5  C   UNK     0     -24.806  12.927 -13.431  0.00  0.00     0.122 A 
HETATM    6  C   UNK     0     -24.941  15.576 -13.157  0.00  0.00     0.122 A 
ENDROOT
BRANCH   1   7
HETATM    7  C   UNK     0     -23.486  14.691 -16.858  0.00  0.00     0.040 C 
BRANCH   7   8
HETATM    8  C   UNK     0     -22.322  13.808 -17.346  0.00  0.00    -0.029 A 
HETATM    9  C   UNK     0     -22.479  12.966 -18.626  0.00  0.00     0.030 A 
HETATM   10  C   UNK     0     -21.316  12.083 -19.113  0.00  0.00     0.056 A 
HETATM   11  C   UNK     0     -19.995  12.042 -18.321  0.00  0.00     0.096 A 
HETATM   12  F   UNK     0     -18.832  11.158 -18.809  0.00  0.00    -0.213 F 
HETATM   13  C   UNK     0     -19.839  12.884 -17.042  0.00  0.00     0.056 A 
HETATM   14  C   UNK     0     -21.002  13.767 -16.554  0.00  0.00     0.030 A 
ENDBRANCH   7   8
BRANCH   7  15
HETATM   15  C   UNK     0     -24.094  15.750 -17.796  0.00  0.00    -0.029 A 
HETATM   16  C   UNK     0     -25.597  15.710 -18.130  0.00  0.00     0.030 A 
HETATM   17  C   UNK     0     -26.206  16.769 -19.069  0.00  0.00     0.056 A 
HETATM   18  C   UNK     0     -25.311  17.868 -19.673  0.00  0.00     0.096 A 
HETATM   19  F   UNK     0     -25.920  18.927 -20.611  0.00  0.00    -0.213 F 
HETATM   20  C   UNK     0     -23.808  17.908 -19.339  0.00  0.00     0.056 A 
HETATM   21  C   UNK     0     -23.199  16.849 -18.400  0.00  0.00     0.030 A 
ENDBRANCH   7  15
ENDBRANCH   1   7
BRANCH   2  22
HETATM   22  C   UNK     0     -25.706  13.988 -11.155  0.00  0.00     0.097 C 
BRANCH  22  23
HETATM   23  C   UNK     0     -24.740  13.872  -9.962  0.00  0.00     0.024 C 
BRANCH  23  24
HETATM   24  C   UNK     0     -23.410  13.111 -10.118  0.00  0.00     0.002 C 
BRANCH  24  25
HETATM   25  C   UNK     0     -23.252  11.705  -9.510  0.00  0.00     0.000 A 
HETATM   26  C   UNK     0     -22.702  11.542  -8.081  0.00  0.00     0.000 A 
HETATM   27  C   UNK     0     -22.543  10.135  -7.473  0.00  0.00     0.000 A 
HETATM   28  C   UNK     0     -22.936   8.892  -8.294  0.00  0.00     0.000 A 
HETATM   29  C   UNK     0     -23.486   9.056  -9.723  0.00  0.00     0.000 A 
HETATM   30  C   UNK     0     -23.644  10.462 -10.331  0.00  0.00     0.000 A 
ENDBRANCH  24  25
ENDBRANCH  23  24
ENDBRANCH  22  23
ENDBRANCH   2  22
TORSDOF 7
ENDMDL
MODEL 10
REMARK VINA RESULT:      -6.8     17.353     19.621
REMARK  7 active torsions:
REMARK  status: ('A' for Active; 'I' for Inactive)
REMARK    1  A    between atoms: N_3  and  C_7 
REMARK    2  A    between atoms: N_4  and  C_10 
REMARK    3  A    between atoms: C_7  and  C_11 
REMARK    4  A    between atoms: C_7  and  C_12 
REMARK    5  A    between atoms: C_10  and  C_13 
REMARK    6  A    between atoms: C_13  and  C_22 
REMARK    7  A    between atoms: C_22  and  C_25 
ROOT
HETATM    1  N   UNK     0     -10.581  26.500 -20.210  0.00  0.00    -0.345 N 
HETATM    2  N   UNK     0      -7.671  27.051 -19.364  0.00  0.00    -0.365 N 
HETATM    3  C   UNK     0      -9.503  25.418 -20.409  0.00  0.00     0.125 A 
HETATM    4  C   UNK     0     -10.204  27.856 -19.588  0.00  0.00     0.125 A 
HETATM    5  C   UNK     0      -8.048  25.694 -19.987  0.00  0.00     0.122 A 
HETATM    6  C   UNK     0      -8.749  28.132 -19.165  0.00  0.00     0.122 A 
ENDROOT
BRANCH   1   7
HETATM    7  C   UNK     0     -12.036  26.224 -20.633  0.00  0.00     0.040 C 
BRANCH   7   8
HETATM    8  C   UNK     0     -13.200  26.817 -19.818  0.00  0.00    -0.029 A 
HETATM    9  C   UNK     0     -13.531  26.251 -18.424  0.00  0.00     0.030 A 
HETATM   10  C   UNK     0     -14.695  26.844 -17.609  0.00  0.00     0.056 A 
HETATM   11  C   UNK     0     -15.528  28.003 -18.187  0.00  0.00     0.096 A 
HETATM   12  F   UNK     0     -16.693  28.596 -17.372  0.00  0.00    -0.213 F 
HETATM   13  C   UNK     0     -15.198  28.568 -19.581  0.00  0.00     0.056 A 
HETATM   14  C   UNK     0     -14.033  27.975 -20.396  0.00  0.00     0.030 A 
ENDBRANCH   7   8
BRANCH   7  15
HETATM   15  C   UNK     0     -12.326  25.355 -21.870  0.00  0.00    -0.029 A 
HETATM   16  C   UNK     0     -12.308  23.819 -21.754  0.00  0.00     0.030 A 
HETATM   17  C   UNK     0     -12.599  22.950 -22.992  0.00  0.00     0.056 A 
HETATM   18  C   UNK     0     -12.908  23.616 -24.346  0.00  0.00     0.096 A 
HETATM   19  F   UNK     0     -13.199  22.747 -25.583  0.00  0.00    -0.213 F 
HETATM   20  C   UNK     0     -12.926  25.152 -24.461  0.00  0.00     0.056 A 
HETATM   21  C   UNK     0     -12.635  26.022 -23.224  0.00  0.00     0.030 A 
ENDBRANCH   7  15
ENDBRANCH   1   7
BRANCH   2  22
HETATM   22  C   UNK     0      -6.216  27.327 -18.941  0.00  0.00     0.097 C 
BRANCH  22  23
HETATM   23  C   UNK     0      -5.785  27.109 -17.480  0.00  0.00     0.024 C 
BRANCH  23  24
HETATM   24  C   UNK     0      -6.779  27.377 -16.335  0.00  0.00     0.002 C 
BRANCH  24  25
HETATM   25  C   UNK     0      -6.977  26.327 -15.225  0.00  0.00     0.000 A 
HETATM   26  C   UNK     0      -6.805  24.830 -15.542  0.00  0.00     0.000 A 
HETATM   27  C   UNK     0      -7.002  23.781 -14.432  0.00  0.00     0.000 A 
HETATM   28  C   UNK     0      -7.373  24.228 -13.006  0.00  0.00     0.000 A 
HETATM   29  C   UNK     0      -7.545  25.725 -12.689  0.00  0.00     0.000 A 
HETATM   30  C   UNK     0      -7.347  26.775 -13.798  0.00  0.00     0.000 A 
ENDBRANCH  24  25
ENDBRANCH  23  24
ENDBRANCH  22  23
ENDBRANCH   2  22
TORSDOF 7
ENDMDL
