MODEL 1
REMARK VINA RESULT:      -5.8      0.000      0.000
REMARK  1 active torsions:
REMARK  status: ('A' for Active; 'I' for Inactive)
REMARK    1  A    between atoms: C_10  and  C_12 
ROOT
HETATM    1  N   UNK     0      14.092  13.685 -29.031  0.00  0.00    -0.105 NA
HETATM    2  C   UNK     0      16.681  13.271 -29.525  0.00  0.00     0.056 A 
HETATM    3  C   UNK     0      16.256  14.245 -28.411  0.00  0.00     0.009 A 
HETATM    4  C   UNK     0      18.175  13.032 -29.811  0.00  0.00     0.009 A 
HETATM    5  C   UNK     0      17.326  14.981 -27.583  0.00  0.00     0.001 A 
HETATM    6  C   UNK     0      19.245  13.767 -28.982  0.00  0.00     0.001 A 
HETATM    7  C   UNK     0      18.820  14.742 -27.868  0.00  0.00     0.000 A 
HETATM    8  C   UNK     0      16.308  12.283 -30.647  0.00  0.00     0.056 A 
HETATM    9  C   UNK     0      15.200  12.984 -29.839  0.00  0.00     0.053 A 
ENDROOT
BRANCH   8  10
HETATM   10  C   UNK     0      17.416  11.583 -31.455  0.00  0.00     0.208 C 
HETATM   11  O   UNK     0      18.006  10.249 -30.958  0.00  0.00    -0.644 OA
HETATM   12  O   UNK     0      17.935  12.215 -32.761  0.00  0.00    -0.644 OA
ENDBRANCH   8  10
TORSDOF 1
ENDMDL
MODEL 2
REMARK VINA RESULT:      -5.5     30.233     31.371
REMARK  1 active torsions:
REMARK  status: ('A' for Active; 'I' for Inactive)
REMARK    1  A    between atoms: C_10  and  C_12 
ROOT
HETATM    1  N   UNK     0     -12.049   0.119 -18.608  0.00  0.00    -0.105 NA
HETATM    2  C   UNK     0     -10.579   2.337 -18.788  0.00  0.00     0.056 A 
HETATM    3  C   UNK     0     -10.501   1.463 -17.523  0.00  0.00     0.009 A 
HETATM    4  C   UNK     0      -9.730   3.618 -18.892  0.00  0.00     0.009 A 
HETATM    5  C   UNK     0      -9.575   1.869 -16.361  0.00  0.00     0.001 A 
HETATM    6  C   UNK     0      -8.804   4.024 -17.730  0.00  0.00     0.001 A 
HETATM    7  C   UNK     0      -8.726   3.149 -16.465  0.00  0.00     0.000 A 
HETATM    8  C   UNK     0     -11.159   2.607 -20.189  0.00  0.00     0.056 A 
HETATM    9  C   UNK     0     -11.604   1.363 -19.398  0.00  0.00     0.053 A 
ENDROOT
BRANCH   8  10
HETATM   10  C   UNK     0     -10.713   3.852 -20.979  0.00  0.00     0.208 C 
HETATM   11  O   UNK     0      -9.560   3.748 -21.996  0.00  0.00    -0.644 OA
HETATM   12  O   UNK     0     -11.420   5.202 -20.754  0.00  0.00    -0.644 OA
ENDBRANCH   8  10
TORSDOF 1
ENDMDL
MODEL 3
REMARK VINA RESULT:      -5.5     28.841     30.362
REMARK  1 active torsions:
REMARK  status: ('A' for Active; 'I' for Inactive)
REMARK    1  A    between atoms: C_10  and  C_12 
ROOT
HETATM    1  N   UNK     0      -8.950  -4.217 -31.147  0.00  0.00    -0.105 NA
HETATM    2  C   UNK     0      -7.218  -4.873 -33.068  0.00  0.00     0.056 A 
HETATM    3  C   UNK     0      -7.789  -5.962 -32.142  0.00  0.00     0.009 A 
HETATM    4  C   UNK     0      -6.219  -5.251 -34.177  0.00  0.00     0.009 A 
HETATM    5  C   UNK     0      -7.361  -7.430 -32.324  0.00  0.00     0.001 A 
HETATM    6  C   UNK     0      -5.791  -6.719 -34.359  0.00  0.00     0.001 A 
HETATM    7  C   UNK     0      -6.362  -7.809 -33.433  0.00  0.00     0.000 A 
HETATM    8  C   UNK     0      -7.136  -3.396 -33.497  0.00  0.00     0.056 A 
HETATM    9  C   UNK     0      -8.043  -3.806 -32.322  0.00  0.00     0.053 A 
ENDROOT
BRANCH   8  10
HETATM   10  C   UNK     0      -6.229  -2.985 -34.672  0.00  0.00     0.208 C 
HETATM   11  O   UNK     0      -4.721  -2.767 -34.443  0.00  0.00    -0.644 OA
HETATM   12  O   UNK     0      -6.829  -2.792 -36.078  0.00  0.00    -0.644 OA
ENDBRANCH   8  10
TORSDOF 1
ENDMDL
MODEL 4
REMARK VINA RESULT:      -5.4     28.788     30.257
REMARK  1 active torsions:
REMARK  status: ('A' for Active; 'I' for Inactive)
REMARK    1  A    between atoms: C_10  and  C_12 
ROOT
HETATM    1  N   UNK     0      -5.805  -7.905 -35.118  0.00  0.00    -0.105 NA
HETATM    2  C   UNK     0      -6.460  -5.437 -34.347  0.00  0.00     0.056 A 
HETATM    3  C   UNK     0      -6.953  -6.651 -33.540  0.00  0.00     0.009 A 
HETATM    4  C   UNK     0      -6.838  -4.012 -33.903  0.00  0.00     0.009 A 
HETATM    5  C   UNK     0      -7.825  -6.441 -32.288  0.00  0.00     0.001 A 
HETATM    6  C   UNK     0      -7.709  -3.801 -32.650  0.00  0.00     0.001 A 
HETATM    7  C   UNK     0      -8.203  -5.017 -31.843  0.00  0.00     0.000 A 
HETATM    8  C   UNK     0      -5.671  -4.857 -35.537  0.00  0.00     0.056 A 
HETATM    9  C   UNK     0      -5.738  -6.381 -35.327  0.00  0.00     0.053 A 
ENDROOT
BRANCH   8  10
HETATM   10  C   UNK     0      -5.605  -3.333 -35.746  0.00  0.00     0.208 C 
HETATM   11  O   UNK     0      -6.846  -2.568 -36.244  0.00  0.00    -0.644 OA
HETATM   12  O   UNK     0      -4.297  -2.571 -35.457  0.00  0.00    -0.644 OA
ENDBRANCH   8  10
TORSDOF 1
ENDMDL
MODEL 5
REMARK VINA RESULT:      -5.3     19.874     21.509
REMARK  1 active torsions:
REMARK  status: ('A' for Active; 'I' for Inactive)
REMARK    1  A    between atoms: C_10  and  C_12 
ROOT
HETATM    1  N   UNK     0       8.774  -4.712 -35.405  0.00  0.00    -0.105 NA
HETATM    2  C   UNK     0      10.947  -6.246 -35.616  0.00  0.00     0.056 A 
HETATM    3  C   UNK     0      11.092  -4.717 -35.512  0.00  0.00     0.009 A 
HETATM    4  C   UNK     0      12.201  -7.132 -35.738  0.00  0.00     0.009 A 
HETATM    5  C   UNK     0      12.491  -4.073 -35.529  0.00  0.00     0.001 A 
HETATM    6  C   UNK     0      13.599  -6.488 -35.755  0.00  0.00     0.001 A 
HETATM    7  C   UNK     0      13.744  -4.958 -35.651  0.00  0.00     0.000 A 
HETATM    8  C   UNK     0      10.055  -7.501 -35.666  0.00  0.00     0.056 A 
HETATM    9  C   UNK     0       9.415  -6.106 -35.535  0.00  0.00     0.053 A 
ENDROOT
BRANCH   8  10
HETATM   10  C   UNK     0      10.695  -8.895 -35.796  0.00  0.00     0.208 C 
HETATM   11  O   UNK     0      11.077  -9.690 -34.533  0.00  0.00    -0.644 OA
HETATM   12  O   UNK     0      10.955  -9.497 -37.191  0.00  0.00    -0.644 OA
ENDBRANCH   8  10
TORSDOF 1
ENDMDL
MODEL 6
REMARK VINA RESULT:      -5.3     17.324     17.655
REMARK  1 active torsions:
REMARK  status: ('A' for Active; 'I' for Inactive)
REMARK    1  A    between atoms: C_10  and  C_12 
ROOT
HETATM    1  N   UNK     0      17.754  -0.429 -16.223  0.00  0.00    -0.105 NA
HETATM    2  C   UNK     0      18.562  -0.615 -18.758  0.00  0.00     0.056 A 
HETATM    3  C   UNK     0      18.265   0.766 -18.145  0.00  0.00     0.009 A 
HETATM    4  C   UNK     0      19.029  -0.723 -20.222  0.00  0.00     0.009 A 
HETATM    5  C   UNK     0      18.435   2.039 -18.994  0.00  0.00     0.001 A 
HETATM    6  C   UNK     0      19.198   0.551 -21.072  0.00  0.00     0.001 A 
HETATM    7  C   UNK     0      18.901   1.931 -20.457  0.00  0.00     0.000 A 
HETATM    8  C   UNK     0      18.636  -2.147 -18.622  0.00  0.00     0.056 A 
HETATM    9  C   UNK     0      18.195  -1.288 -17.422  0.00  0.00     0.053 A 
ENDROOT
BRANCH   8  10
HETATM   10  C   UNK     0      19.076  -3.007 -19.822  0.00  0.00     0.208 C 
HETATM   11  O   UNK     0      18.024  -3.559 -20.802  0.00  0.00    -0.644 OA
HETATM   12  O   UNK     0      20.570  -3.314 -20.042  0.00  0.00    -0.644 OA
ENDBRANCH   8  10
TORSDOF 1
ENDMDL
MODEL 7
REMARK VINA RESULT:      -5.3     15.621     16.147
REMARK  1 active torsions:
REMARK  status: ('A' for Active; 'I' for Inactive)
REMARK    1  A    between atoms: C_10  and  C_12 
ROOT
HETATM    1  N   UNK     0      18.026   1.687 -18.560  0.00  0.00    -0.105 NA
HETATM    2  C   UNK     0      18.461   0.252 -20.766  0.00  0.00     0.056 A 
HETATM    3  C   UNK     0      17.890   1.677 -20.876  0.00  0.00     0.009 A 
HETATM    4  C   UNK     0      18.713  -0.578 -22.039  0.00  0.00     0.009 A 
HETATM    5  C   UNK     0      17.569   2.273 -22.259  0.00  0.00     0.001 A 
HETATM    6  C   UNK     0      18.392   0.019 -23.422  0.00  0.00     0.001 A 
HETATM    7  C   UNK     0      17.820   1.445 -23.532  0.00  0.00     0.000 A 
HETATM    8  C   UNK     0      18.977  -0.916 -19.904  0.00  0.00     0.056 A 
HETATM    9  C   UNK     0      18.502   0.385 -19.232  0.00  0.00     0.053 A 
ENDROOT
BRANCH   8  10
HETATM   10  C   UNK     0      19.452  -2.218 -20.575  0.00  0.00     0.208 C 
HETATM   11  O   UNK     0      18.487  -3.412 -20.712  0.00  0.00    -0.644 OA
HETATM   12  O   UNK     0      20.892  -2.328 -21.112  0.00  0.00    -0.644 OA
ENDBRANCH   8  10
TORSDOF 1
ENDMDL
MODEL 8
REMARK VINA RESULT:      -5.2     18.219     20.190
REMARK  1 active torsions:
REMARK  status: ('A' for Active; 'I' for Inactive)
REMARK    1  A    between atoms: C_10  and  C_12 
ROOT
HETATM    1  N   UNK     0      14.032  -6.840 -35.048  0.00  0.00    -0.105 NA
HETATM    2  C   UNK     0      11.913  -5.299 -35.552  0.00  0.00     0.056 A 
HETATM    3  C   UNK     0      11.743  -6.824 -35.429  0.00  0.00     0.009 A 
HETATM    4  C   UNK     0      10.690  -4.409 -35.842  0.00  0.00     0.009 A 
HETATM    5  C   UNK     0      10.351  -7.461 -35.596  0.00  0.00     0.001 A 
HETATM    6  C   UNK     0       9.297  -5.046 -36.010  0.00  0.00     0.001 A 
HETATM    7  C   UNK     0       9.128  -6.572 -35.887  0.00  0.00     0.000 A 
HETATM    8  C   UNK     0      12.815  -4.051 -35.526  0.00  0.00     0.056 A 
HETATM    9  C   UNK     0      13.423  -5.445 -35.287  0.00  0.00     0.053 A 
ENDROOT
BRANCH   8  10
HETATM   10  C   UNK     0      12.206  -2.656 -35.765  0.00  0.00     0.208 C 
HETATM   11  O   UNK     0      12.003  -2.140 -37.202  0.00  0.00    -0.644 OA
HETATM   12  O   UNK     0      11.801  -1.777 -34.567  0.00  0.00    -0.644 OA
ENDBRANCH   8  10
TORSDOF 1
ENDMDL
MODEL 9
REMARK VINA RESULT:      -5.1     17.301     17.624
REMARK  1 active torsions:
REMARK  status: ('A' for Active; 'I' for Inactive)
REMARK    1  A    between atoms: C_10  and  C_12 
ROOT
HETATM    1  N   UNK     0      18.863   1.875 -20.947  0.00  0.00    -0.105 NA
HETATM    2  C   UNK     0      18.736  -0.353 -19.486  0.00  0.00     0.056 A 
HETATM    3  C   UNK     0      18.397   1.006 -18.847  0.00  0.00     0.009 A 
HETATM    4  C   UNK     0      18.662  -1.640 -18.643  0.00  0.00     0.009 A 
HETATM    5  C   UNK     0      17.984   1.079 -17.366  0.00  0.00     0.001 A 
HETATM    6  C   UNK     0      18.250  -1.567 -17.161  0.00  0.00     0.001 A 
HETATM    7  C   UNK     0      17.910  -0.207 -16.522  0.00  0.00     0.000 A 
HETATM    8  C   UNK     0      19.170  -1.181 -20.710  0.00  0.00     0.056 A 
HETATM    9  C   UNK     0      19.017   0.347 -20.829  0.00  0.00     0.053 A 
ENDROOT
BRANCH   8  10
HETATM   10  C   UNK     0      19.324  -2.708 -20.592  0.00  0.00     0.208 C 
HETATM   11  O   UNK     0      18.106  -3.625 -20.819  0.00  0.00    -0.644 OA
HETATM   12  O   UNK     0      20.694  -3.321 -20.247  0.00  0.00    -0.644 OA
ENDBRANCH   8  10
TORSDOF 1
ENDMDL
MODEL 10
REMARK VINA RESULT:      -5.1     13.814     14.370
REMARK  1 active torsions:
REMARK  status: ('A' for Active; 'I' for Inactive)
REMARK    1  A    between atoms: C_10  and  C_12 
ROOT
HETATM    1  N   UNK     0      18.761   1.011 -18.182  0.00  0.00    -0.105 NA
HETATM    2  C   UNK     0      18.481   2.328 -20.485  0.00  0.00     0.056 A 
HETATM    3  C   UNK     0      18.456   0.789 -20.471  0.00  0.00     0.009 A 
HETATM    4  C   UNK     0      18.319   3.089 -21.814  0.00  0.00     0.009 A 
HETATM    5  C   UNK     0      18.268   0.010 -21.786  0.00  0.00     0.001 A 
HETATM    6  C   UNK     0      18.132   2.309 -23.129  0.00  0.00     0.001 A 
HETATM    7  C   UNK     0      18.107   0.769 -23.115  0.00  0.00     0.000 A 
HETATM    8  C   UNK     0      18.604   3.667 -19.734  0.00  0.00     0.056 A 
HETATM    9  C   UNK     0      18.682   2.339 -18.958  0.00  0.00     0.053 A 
ENDROOT
BRANCH   8  10
HETATM   10  C   UNK     0      18.525   4.995 -20.510  0.00  0.00     0.208 C 
HETATM   11  O   UNK     0      19.768   5.534 -21.244  0.00  0.00    -0.644 OA
HETATM   12  O   UNK     0      17.203   5.786 -20.552  0.00  0.00    -0.644 OA
ENDBRANCH   8  10
TORSDOF 1
ENDMDL
