MODEL 1
REMARK VINA RESULT:      -5.2      0.000      0.000
REMARK  3 active torsions:
REMARK  status: ('A' for Active; 'I' for Inactive)
REMARK    1  A    between atoms: N_1  and  C_2 
REMARK    2  A    between atoms: C_2  and  C_5 
REMARK    3  A    between atoms: C_2  and  C_6 
ROOT
HETATM    1  N   UNK     0      -0.442  -8.902  -9.793  0.00  0.00    -0.311 N 
HETATM    2  C   UNK     0      -0.597  -9.117 -11.310  0.00  0.00     0.171 A 
HETATM    3  C   UNK     0       0.429 -10.043  -9.237  0.00  0.00     0.108 A 
HETATM    4  C   UNK     0       0.180 -10.392 -11.691  0.00  0.00     0.075 A 
HETATM    5  O   UNK     0      -1.389  -8.216 -12.276  0.00  0.00    -0.176 OA
HETATM    6  C   UNK     0       0.814 -10.964 -10.411  0.00  0.00     0.033 A 
ENDROOT
BRANCH   1   7
HETATM    7  C   UNK     0      -1.053  -7.748  -8.976  0.00  0.00     0.077 C 
BRANCH   7   8
HETATM    8  C   UNK     0      -2.474  -7.248  -9.292  0.00  0.00     0.212 C 
HETATM    9  N   UNK     0      -3.664  -8.225  -9.239  0.00  0.00    -0.070 NA
HETATM   10  O   UNK     0      -2.707  -5.772  -9.662  0.00  0.00    -0.174 OA
ENDBRANCH   7   8
BRANCH   7  11
HETATM   11  C   UNK     0      -0.241  -7.095  -7.842  0.00  0.00     0.047 C 
HETATM   12  C   UNK     0      -0.961  -6.549  -6.594  0.00  0.00     0.007 C 
ENDBRANCH   7  11
ENDBRANCH   1   7
TORSDOF 3
ENDMDL
MODEL 2
REMARK VINA RESULT:      -5.1      1.802      4.438
REMARK  3 active torsions:
REMARK  status: ('A' for Active; 'I' for Inactive)
REMARK    1  A    between atoms: N_1  and  C_2 
REMARK    2  A    between atoms: C_2  and  C_5 
REMARK    3  A    between atoms: C_2  and  C_6 
ROOT
HETATM    1  N   UNK     0      -1.713  -7.690  -9.527  0.00  0.00    -0.311 N 
HETATM    2  C   UNK     0      -2.264  -6.298  -9.167  0.00  0.00     0.171 A 
HETATM    3  C   UNK     0      -0.694  -8.091  -8.444  0.00  0.00     0.108 A 
HETATM    4  C   UNK     0      -1.587  -5.839  -7.862  0.00  0.00     0.075 A 
HETATM    5  O   UNK     0      -3.311  -5.504  -9.972  0.00  0.00    -0.176 OA
HETATM    6  C   UNK     0      -0.616  -6.947  -7.416  0.00  0.00     0.033 A 
ENDROOT
BRANCH   1   7
HETATM    7  C   UNK     0      -2.110  -8.532 -10.753  0.00  0.00     0.077 C 
BRANCH   7   8
HETATM    8  C   UNK     0      -1.085  -8.793 -11.872  0.00  0.00     0.212 C 
HETATM    9  N   UNK     0      -0.097  -9.968 -11.753  0.00  0.00    -0.070 NA
HETATM   10  O   UNK     0      -1.049  -7.879 -13.111  0.00  0.00    -0.174 OA
ENDBRANCH   7   8
BRANCH   7  11
HETATM   11  C   UNK     0      -3.532  -9.114 -10.860  0.00  0.00     0.047 C 
HETATM   12  C   UNK     0      -4.264  -9.114 -12.215  0.00  0.00     0.007 C 
ENDBRANCH   7  11
ENDBRANCH   1   7
TORSDOF 3
ENDMDL
MODEL 3
REMARK VINA RESULT:      -5.1      2.173      3.253
REMARK  3 active torsions:
REMARK  status: ('A' for Active; 'I' for Inactive)
REMARK    1  A    between atoms: N_1  and  C_2 
REMARK    2  A    between atoms: C_2  and  C_5 
REMARK    3  A    between atoms: C_2  and  C_6 
ROOT
HETATM    1  N   UNK     0      -2.482  -8.786 -10.924  0.00  0.00    -0.311 N 
HETATM    2  C   UNK     0      -1.314  -9.128 -11.866  0.00  0.00     0.171 A 
HETATM    3  C   UNK     0      -2.890 -10.075 -10.185  0.00  0.00     0.108 A 
HETATM    4  C   UNK     0      -0.999 -10.628 -11.709  0.00  0.00     0.075 A 
HETATM    5  O   UNK     0      -0.587  -8.143 -12.800  0.00  0.00    -0.176 OA
HETATM    6  C   UNK     0      -1.973 -11.213 -10.671  0.00  0.00     0.033 A 
ENDROOT
BRANCH   1   7
HETATM    7  C   UNK     0      -3.130  -7.400 -10.751  0.00  0.00     0.077 C 
BRANCH   7   8
HETATM    8  C   UNK     0      -2.839  -6.566  -9.490  0.00  0.00     0.212 C 
HETATM    9  N   UNK     0      -2.260  -7.245  -8.234  0.00  0.00    -0.070 NA
HETATM   10  O   UNK     0      -3.127  -5.053  -9.483  0.00  0.00    -0.174 OA
ENDBRANCH   7   8
BRANCH   7  11
HETATM   11  C   UNK     0      -4.070  -6.848 -11.839  0.00  0.00     0.047 C 
HETATM   12  C   UNK     0      -4.709  -7.804 -12.863  0.00  0.00     0.007 C 
ENDBRANCH   7  11
ENDBRANCH   1   7
TORSDOF 3
ENDMDL
MODEL 4
REMARK VINA RESULT:      -5.1     16.026     17.090
REMARK  3 active torsions:
REMARK  status: ('A' for Active; 'I' for Inactive)
REMARK    1  A    between atoms: N_1  and  C_2 
REMARK    2  A    between atoms: C_2  and  C_5 
REMARK    3  A    between atoms: C_2  and  C_6 
ROOT
HETATM    1  N   UNK     0       4.676   7.186 -10.667  0.00  0.00    -0.311 N 
HETATM    2  C   UNK     0       5.912   7.144 -11.583  0.00  0.00     0.171 A 
HETATM    3  C   UNK     0       5.020   6.434  -9.368  0.00  0.00     0.108 A 
HETATM    4  C   UNK     0       7.021   6.365 -10.850  0.00  0.00     0.075 A 
HETATM    5  O   UNK     0       6.021   7.771 -12.985  0.00  0.00    -0.176 OA
HETATM    6  C   UNK     0       6.470   5.926  -9.482  0.00  0.00     0.033 A 
ENDROOT
BRANCH   1   7
HETATM    7  C   UNK     0       3.331   7.863 -10.991  0.00  0.00     0.077 C 
BRANCH   7   8
HETATM    8  C   UNK     0       3.173   9.384 -10.820  0.00  0.00     0.212 C 
HETATM    9  N   UNK     0       4.228  10.339 -11.410  0.00  0.00    -0.070 NA
HETATM   10  O   UNK     0       1.961   9.952 -10.059  0.00  0.00    -0.174 OA
ENDBRANCH   7   8
BRANCH   7  11
HETATM   11  C   UNK     0       2.144   7.017 -11.488  0.00  0.00     0.047 C 
HETATM   12  C   UNK     0       2.360   5.544 -11.886  0.00  0.00     0.007 C 
ENDBRANCH   7  11
ENDBRANCH   1   7
TORSDOF 3
ENDMDL
MODEL 5
REMARK VINA RESULT:      -5.0     16.762     18.368
REMARK  3 active torsions:
REMARK  status: ('A' for Active; 'I' for Inactive)
REMARK    1  A    between atoms: N_1  and  C_2 
REMARK    2  A    between atoms: C_2  and  C_5 
REMARK    3  A    between atoms: C_2  and  C_6 
ROOT
HETATM    1  N   UNK     0     -10.614   2.482 -19.107  0.00  0.00    -0.311 N 
HETATM    2  C   UNK     0      -9.470   3.280 -18.457  0.00  0.00     0.171 A 
HETATM    3  C   UNK     0     -11.207   1.544 -18.039  0.00  0.00     0.108 A 
HETATM    4  C   UNK     0      -9.355   2.836 -16.987  0.00  0.00     0.075 A 
HETATM    5  O   UNK     0      -8.594   4.338 -19.155  0.00  0.00    -0.176 OA
HETATM    6  C   UNK     0     -10.428   1.763 -16.728  0.00  0.00     0.033 A 
ENDROOT
BRANCH   1   7
HETATM    7  C   UNK     0     -11.084   2.600 -20.569  0.00  0.00     0.077 C 
BRANCH   7   8
HETATM    8  C   UNK     0     -11.948   3.796 -21.006  0.00  0.00     0.212 C 
HETATM    9  N   UNK     0     -11.397   5.230 -20.882  0.00  0.00    -0.070 NA
HETATM   10  O   UNK     0     -13.362   3.561 -21.567  0.00  0.00    -0.174 OA
ENDBRANCH   7   8
BRANCH   7  11
HETATM   11  C   UNK     0     -10.689   1.520 -21.594  0.00  0.00     0.047 C 
HETATM   12  C   UNK     0     -10.655   1.860 -23.096  0.00  0.00     0.007 C 
ENDBRANCH   7  11
ENDBRANCH   1   7
TORSDOF 3
ENDMDL
MODEL 6
REMARK VINA RESULT:      -5.0     24.455     25.089
REMARK  3 active torsions:
REMARK  status: ('A' for Active; 'I' for Inactive)
REMARK    1  A    between atoms: N_1  and  C_2 
REMARK    2  A    between atoms: C_2  and  C_5 
REMARK    3  A    between atoms: C_2  and  C_6 
ROOT
HETATM    1  N   UNK     0      18.237   2.263 -21.153  0.00  0.00    -0.311 N 
HETATM    2  C   UNK     0      17.649   2.064 -22.561  0.00  0.00     0.171 A 
HETATM    3  C   UNK     0      19.055   1.008 -20.797  0.00  0.00     0.108 A 
HETATM    4  C   UNK     0      18.103   0.686 -23.077  0.00  0.00     0.075 A 
HETATM    5  O   UNK     0      16.762   3.068 -23.322  0.00  0.00    -0.176 OA
HETATM    6  C   UNK     0      18.972   0.033 -21.987  0.00  0.00     0.033 A 
ENDROOT
BRANCH   1   7
HETATM    7  C   UNK     0      18.042   3.500 -20.257  0.00  0.00     0.077 C 
BRANCH   7   8
HETATM    8  C   UNK     0      18.890   4.763 -20.492  0.00  0.00     0.212 C 
HETATM    9  N   UNK     0      19.049   5.330 -21.915  0.00  0.00    -0.070 NA
HETATM   10  O   UNK     0      19.580   5.460 -19.304  0.00  0.00    -0.174 OA
ENDBRANCH   7   8
BRANCH   7  11
HETATM   11  C   UNK     0      16.997   3.474 -19.125  0.00  0.00     0.047 C 
HETATM   12  C   UNK     0      16.178   4.738 -18.803  0.00  0.00     0.007 C 
ENDBRANCH   7  11
ENDBRANCH   1   7
TORSDOF 3
ENDMDL
MODEL 7
REMARK VINA RESULT:      -4.9      2.364      4.633
REMARK  3 active torsions:
REMARK  status: ('A' for Active; 'I' for Inactive)
REMARK    1  A    between atoms: N_1  and  C_2 
REMARK    2  A    between atoms: C_2  and  C_5 
REMARK    3  A    between atoms: C_2  and  C_6 
ROOT
HETATM    1  N   UNK     0      -1.774  -7.839  -9.515  0.00  0.00    -0.311 N 
HETATM    2  C   UNK     0      -0.544  -8.107  -8.628  0.00  0.00     0.171 A 
HETATM    3  C   UNK     0      -2.441  -6.541  -9.023  0.00  0.00     0.108 A 
HETATM    4  C   UNK     0      -0.451  -6.975  -7.588  0.00  0.00     0.075 A 
HETATM    5  O   UNK     0       0.423  -9.299  -8.759  0.00  0.00    -0.176 OA
HETATM    6  C   UNK     0      -1.623  -6.007  -7.832  0.00  0.00     0.033 A 
ENDROOT
BRANCH   1   7
HETATM    7  C   UNK     0      -2.253  -8.715 -10.687  0.00  0.00     0.077 C 
BRANCH   7   8
HETATM    8  C   UNK     0      -1.290  -9.052 -11.840  0.00  0.00     0.212 C 
HETATM    9  N   UNK     0      -1.014  -8.011 -12.942  0.00  0.00    -0.070 NA
HETATM   10  O   UNK     0      -0.603 -10.429 -11.892  0.00  0.00    -0.174 OA
ENDBRANCH   7   8
BRANCH   7  11
HETATM   11  C   UNK     0      -3.696  -9.254 -10.706  0.00  0.00     0.047 C 
HETATM   12  C   UNK     0      -4.458  -9.369 -12.040  0.00  0.00     0.007 C 
ENDBRANCH   7  11
ENDBRANCH   1   7
TORSDOF 3
ENDMDL
MODEL 8
REMARK VINA RESULT:      -4.9     19.894     20.656
REMARK  3 active torsions:
REMARK  status: ('A' for Active; 'I' for Inactive)
REMARK    1  A    between atoms: N_1  and  C_2 
REMARK    2  A    between atoms: C_2  and  C_5 
REMARK    3  A    between atoms: C_2  and  C_6 
ROOT
HETATM    1  N   UNK     0     -16.732 -19.413  -2.649  0.00  0.00    -0.311 N 
HETATM    2  C   UNK     0     -17.595 -20.670  -2.443  0.00  0.00     0.171 A 
HETATM    3  C   UNK     0     -16.541 -19.209  -4.164  0.00  0.00     0.108 A 
HETATM    4  C   UNK     0     -17.939 -21.244  -3.830  0.00  0.00     0.075 A 
HETATM    5  O   UNK     0     -18.038 -21.251  -1.087  0.00  0.00    -0.176 OA
HETATM    6  C   UNK     0     -17.288 -20.342  -4.894  0.00  0.00     0.033 A 
ENDROOT
BRANCH   1   7
HETATM    7  C   UNK     0     -16.158 -18.515  -1.537  0.00  0.00     0.077 C 
BRANCH   7   8
HETATM    8  C   UNK     0     -14.637 -18.442  -1.314  0.00  0.00     0.212 C 
HETATM    9  N   UNK     0     -13.987 -17.119  -0.867  0.00  0.00    -0.070 NA
HETATM   10  O   UNK     0     -13.765 -19.691  -1.538  0.00  0.00    -0.174 OA
ENDBRANCH   7   8
BRANCH   7  11
HETATM   11  C   UNK     0     -17.107 -17.691  -0.647  0.00  0.00     0.047 C 
HETATM   12  C   UNK     0     -18.418 -17.130  -1.231  0.00  0.00     0.007 C 
ENDBRANCH   7  11
ENDBRANCH   1   7
TORSDOF 3
ENDMDL
MODEL 9
REMARK VINA RESULT:      -4.9     23.503     24.372
REMARK  3 active torsions:
REMARK  status: ('A' for Active; 'I' for Inactive)
REMARK    1  A    between atoms: N_1  and  C_2 
REMARK    2  A    between atoms: C_2  and  C_5 
REMARK    3  A    between atoms: C_2  and  C_6 
ROOT
HETATM    1  N   UNK     0      18.778  -0.727 -20.575  0.00  0.00    -0.311 N 
HETATM    2  C   UNK     0      19.850  -1.805 -20.814  0.00  0.00     0.171 A 
HETATM    3  C   UNK     0      17.611  -1.378 -19.809  0.00  0.00     0.108 A 
HETATM    4  C   UNK     0      19.346  -3.123 -20.197  0.00  0.00     0.075 A 
HETATM    5  O   UNK     0      21.192  -1.601 -21.543  0.00  0.00    -0.176 OA
HETATM    6  C   UNK     0      17.963  -2.859 -19.576  0.00  0.00     0.033 A 
ENDROOT
BRANCH   1   7
HETATM    7  C   UNK     0      18.858   0.745 -21.022  0.00  0.00     0.077 C 
BRANCH   7   8
HETATM    8  C   UNK     0      18.479   1.134 -22.462  0.00  0.00     0.212 C 
HETATM    9  N   UNK     0      18.204   0.037 -23.509  0.00  0.00    -0.070 NA
HETATM   10  O   UNK     0      18.376   2.619 -22.858  0.00  0.00    -0.174 OA
ENDBRANCH   7   8
BRANCH   7  11
HETATM   11  C   UNK     0      19.316   1.828 -20.027  0.00  0.00     0.047 C 
HETATM   12  C   UNK     0      18.287   2.521 -19.114  0.00  0.00     0.007 C 
ENDBRANCH   7  11
ENDBRANCH   1   7
TORSDOF 3
ENDMDL
MODEL 10
REMARK VINA RESULT:      -4.9      2.411      3.400
REMARK  3 active torsions:
REMARK  status: ('A' for Active; 'I' for Inactive)
REMARK    1  A    between atoms: N_1  and  C_2 
REMARK    2  A    between atoms: C_2  and  C_5 
REMARK    3  A    between atoms: C_2  and  C_6 
ROOT
HETATM    1  N   UNK     0      -0.995  -9.951  -9.515  0.00  0.00    -0.311 N 
HETATM    2  C   UNK     0      -1.187 -11.458  -9.270  0.00  0.00     0.171 A 
HETATM    3  C   UNK     0       0.368  -9.543  -8.927  0.00  0.00     0.108 A 
HETATM    4  C   UNK     0       0.058 -11.983  -8.530  0.00  0.00     0.075 A 
HETATM    5  O   UNK     0      -2.410 -12.295  -9.691  0.00  0.00    -0.176 OA
HETATM    6  C   UNK     0       1.019 -10.800  -8.318  0.00  0.00     0.033 A 
ENDROOT
BRANCH   1   7
HETATM    7  C   UNK     0      -1.992  -9.015 -10.224  0.00  0.00     0.077 C 
BRANCH   7   8
HETATM    8  C   UNK     0      -2.389  -7.678  -9.572  0.00  0.00     0.212 C 
HETATM    9  N   UNK     0      -2.921  -6.524 -10.444  0.00  0.00    -0.070 NA
HETATM   10  O   UNK     0      -2.256  -7.494  -8.049  0.00  0.00    -0.174 OA
ENDBRANCH   7   8
BRANCH   7  11
HETATM   11  C   UNK     0      -2.591  -9.416 -11.585  0.00  0.00     0.047 C 
HETATM   12  C   UNK     0      -4.112  -9.608 -11.731  0.00  0.00     0.007 C 
ENDBRANCH   7  11
ENDBRANCH   1   7
TORSDOF 3
ENDMDL
