MODEL 1
REMARK VINA RESULT:      -7.3      0.000      0.000
REMARK  0 active torsions:
REMARK  status: ('A' for Active; 'I' for Inactive)
ROOT
HETATM    1 Cl   UNK     0       0.361   4.876 -14.648  0.00  0.00    -0.100 Cl
HETATM    2 Cl   UNK     0       1.571   6.200 -12.779  0.00  0.00    -0.158 Cl
HETATM    3  O   UNK     0       6.879   4.682  -8.225  0.00  0.00    -0.165 OA
HETATM    4  O   UNK     0       6.926   2.088  -9.468  0.00  0.00    -0.165 OA
HETATM    5  N   UNK     0       5.002   2.542 -11.167  0.00  0.00    -0.222 NA
HETATM    6  N   UNK     0       4.944   5.663  -9.672  0.00  0.00    -0.217 NA
HETATM    7  C   UNK     0       3.357   4.704 -11.737  0.00  0.00     0.011 A 
HETATM    8  C   UNK     0       3.831   5.770 -10.732  0.00  0.00     0.077 A 
HETATM    9  C   UNK     0       3.877   3.268 -11.931  0.00  0.00     0.059 A 
HETATM   10  C   UNK     0       3.097   7.122 -10.795  0.00  0.00     0.001 A 
HETATM   11  C   UNK     0       5.857   4.463  -9.356  0.00  0.00     0.257 A 
HETATM   12  C   UNK     0       2.165   5.277 -12.644  0.00  0.00     0.059 A 
HETATM   13  C   UNK     0       5.882   3.074 -10.022  0.00  0.00     0.257 A 
HETATM   14  C   UNK     0       3.242   2.305 -13.045  0.00  0.00     0.048 A 
HETATM   15  C   UNK     0       1.506   4.342 -13.769  0.00  0.00     0.128 A 
HETATM   16  C   UNK     0       2.049   2.846 -13.970  0.00  0.00     0.036 A 
HETATM   17  C   UNK     0       1.966   7.337 -11.819  0.00  0.00     0.019 A 
HETATM   18  C   UNK     0       3.492   8.259  -9.834  0.00  0.00     0.028 A 
HETATM   19  C   UNK     0       1.231   8.689 -11.882  0.00  0.00     0.036 A 
HETATM   20  C   UNK     0       2.757   9.611  -9.897  0.00  0.00     0.005 A 
HETATM   21  C   UNK     0       1.627   9.825 -10.921  0.00  0.00     0.006 A 
ENDROOT
TORSDOF 0
ENDMDL
MODEL 2
REMARK VINA RESULT:      -7.2     15.526     17.465
REMARK  0 active torsions:
REMARK  status: ('A' for Active; 'I' for Inactive)
ROOT
HETATM    1 Cl   UNK     0      14.013   2.813 -19.985  0.00  0.00    -0.100 Cl
HETATM    2 Cl   UNK     0      14.439   0.310 -19.472  0.00  0.00    -0.158 Cl
HETATM    3  O   UNK     0      20.013  -4.087 -20.370  0.00  0.00    -0.165 OA
HETATM    4  O   UNK     0      21.367  -1.809 -21.487  0.00  0.00    -0.165 OA
HETATM    5  N   UNK     0      19.395  -0.128 -21.203  0.00  0.00    -0.222 NA
HETATM    6  N   UNK     0      17.765  -2.869 -19.859  0.00  0.00    -0.217 NA
HETATM    7  C   UNK     0      16.813  -0.284 -20.198  0.00  0.00     0.011 A 
HETATM    8  C   UNK     0      16.704  -1.757 -19.761  0.00  0.00     0.077 A 
HETATM    9  C   UNK     0      18.010   0.441 -20.839  0.00  0.00     0.059 A 
HETATM   10  C   UNK     0      15.355  -2.174 -19.146  0.00  0.00     0.001 A 
HETATM   11  C   UNK     0      19.199  -2.782 -20.417  0.00  0.00     0.257 A 
HETATM   12  C   UNK     0      15.444   0.495 -19.896  0.00  0.00     0.059 A 
HETATM   13  C   UNK     0      19.924  -1.562 -21.015  0.00  0.00     0.257 A 
HETATM   14  C   UNK     0      17.921   1.996 -21.223  0.00  0.00     0.048 A 
HETATM   15  C   UNK     0      15.320   2.050 -20.268  0.00  0.00     0.128 A 
HETATM   16  C   UNK     0      16.567   2.805 -20.936  0.00  0.00     0.036 A 
HETATM   17  C   UNK     0      14.222  -1.140 -19.001  0.00  0.00     0.019 A 
HETATM   18  C   UNK     0      15.138  -3.625 -18.676  0.00  0.00     0.028 A 
HETATM   19  C   UNK     0      12.873  -1.557 -18.386  0.00  0.00     0.036 A 
HETATM   20  C   UNK     0      13.789  -4.041 -18.061  0.00  0.00     0.005 A 
HETATM   21  C   UNK     0      12.657  -3.007 -17.916  0.00  0.00     0.006 A 
ENDROOT
TORSDOF 0
ENDMDL
MODEL 3
REMARK VINA RESULT:      -7.1     26.050     27.965
REMARK  0 active torsions:
REMARK  status: ('A' for Active; 'I' for Inactive)
ROOT
HETATM    1 Cl   UNK     0     -26.993  15.276 -14.192  0.00  0.00    -0.100 Cl
HETATM    2 Cl   UNK     0     -24.747  14.470 -15.199  0.00  0.00    -0.158 Cl
HETATM    3  O   UNK     0     -19.456  10.257 -12.860  0.00  0.00    -0.165 OA
HETATM    4  O   UNK     0     -21.016   9.979 -10.460  0.00  0.00    -0.165 OA
HETATM    5  N   UNK     0     -22.995  11.498 -11.219  0.00  0.00    -0.222 NA
HETATM    6  N   UNK     0     -21.118  11.832 -14.107  0.00  0.00    -0.217 NA
HETATM    7  C   UNK     0     -23.581  12.961 -13.503  0.00  0.00     0.011 A 
HETATM    8  C   UNK     0     -22.359  12.696 -14.403  0.00  0.00     0.077 A 
HETATM    9  C   UNK     0     -23.864  12.428 -12.086  0.00  0.00     0.059 A 
HETATM   10  C   UNK     0     -22.381  13.386 -15.779  0.00  0.00     0.001 A 
HETATM   11  C   UNK     0     -20.793  11.021 -12.839  0.00  0.00     0.257 A 
HETATM   12  C   UNK     0     -24.624  13.929 -14.242  0.00  0.00     0.059 A 
HETATM   13  C   UNK     0     -21.628  10.872 -11.554  0.00  0.00     0.257 A 
HETATM   14  C   UNK     0     -25.210  12.826 -11.311  0.00  0.00     0.048 A 
HETATM   15  C   UNK     0     -25.981  14.347 -13.496  0.00  0.00     0.128 A 
HETATM   16  C   UNK     0     -26.275  13.792 -12.021  0.00  0.00     0.036 A 
HETATM   17  C   UNK     0     -23.575  14.273 -16.178  0.00  0.00     0.019 A 
HETATM   18  C   UNK     0     -21.208  13.188 -16.758  0.00  0.00     0.028 A 
HETATM   19  C   UNK     0     -23.596  14.963 -17.555  0.00  0.00     0.036 A 
HETATM   20  C   UNK     0     -21.229  13.877 -18.135  0.00  0.00     0.005 A 
HETATM   21  C   UNK     0     -22.424  14.765 -18.533  0.00  0.00     0.006 A 
ENDROOT
TORSDOF 0
ENDMDL
MODEL 4
REMARK VINA RESULT:      -7.1     23.981     26.374
REMARK  0 active torsions:
REMARK  status: ('A' for Active; 'I' for Inactive)
ROOT
HETATM    1 Cl   UNK     0      11.574  -3.470 -28.831  0.00  0.00    -0.100 Cl
HETATM    2 Cl   UNK     0      11.727  -5.549 -30.368  0.00  0.00    -0.158 Cl
HETATM    3  O   UNK     0      13.999  -6.646 -37.065  0.00  0.00    -0.165 OA
HETATM    4  O   UNK     0      14.583  -3.830 -37.109  0.00  0.00    -0.165 OA
HETATM    5  N   UNK     0      13.780  -3.326 -34.680  0.00  0.00    -0.222 NA
HETATM    6  N   UNK     0      13.078  -6.715 -34.627  0.00  0.00    -0.217 NA
HETATM    7  C   UNK     0      12.707  -4.838 -32.615  0.00  0.00     0.011 A 
HETATM    8  C   UNK     0      12.647  -6.253 -33.221  0.00  0.00     0.077 A 
HETATM    9  C   UNK     0      13.211  -3.536 -33.264  0.00  0.00     0.059 A 
HETATM   10  C   UNK     0      12.084  -7.352 -32.301  0.00  0.00     0.001 A 
HETATM   11  C   UNK     0      13.673  -5.875 -35.772  0.00  0.00     0.257 A 
HETATM   12  C   UNK     0      12.146  -4.847 -31.113  0.00  0.00     0.059 A 
HETATM   13  C   UNK     0      13.986  -4.367 -35.796  0.00  0.00     0.257 A 
HETATM   14  C   UNK     0      13.189  -2.151 -32.455  0.00  0.00     0.048 A 
HETATM   15  C   UNK     0      12.109  -3.480 -30.275  0.00  0.00     0.128 A 
HETATM   16  C   UNK     0      12.634  -2.123 -30.951  0.00  0.00     0.036 A 
HETATM   17  C   UNK     0      11.623  -7.000 -30.874  0.00  0.00     0.019 A 
HETATM   18  C   UNK     0      11.980  -8.803 -32.808  0.00  0.00     0.028 A 
HETATM   19  C   UNK     0      11.059  -8.098 -29.954  0.00  0.00     0.036 A 
HETATM   20  C   UNK     0      11.416  -9.901 -31.887  0.00  0.00     0.005 A 
HETATM   21  C   UNK     0      10.956  -9.548 -30.460  0.00  0.00     0.006 A 
ENDROOT
TORSDOF 0
ENDMDL
MODEL 5
REMARK VINA RESULT:      -6.9     14.736     16.412
REMARK  0 active torsions:
REMARK  status: ('A' for Active; 'I' for Inactive)
ROOT
HETATM    1 Cl   UNK     0      17.764   5.008 -18.976  0.00  0.00    -0.100 Cl
HETATM    2 Cl   UNK     0      15.930   3.178 -18.964  0.00  0.00    -0.158 Cl
HETATM    3  O   UNK     0      15.895  -3.860 -20.257  0.00  0.00    -0.165 OA
HETATM    4  O   UNK     0      18.716  -3.576 -20.743  0.00  0.00    -0.165 OA
HETATM    5  N   UNK     0      18.834  -1.011 -20.292  0.00  0.00    -0.222 NA
HETATM    6  N   UNK     0      15.440  -1.352 -19.707  0.00  0.00    -0.217 NA
HETATM    7  C   UNK     0      16.996   0.943 -19.580  0.00  0.00     0.011 A 
HETATM    8  C   UNK     0      15.678   0.152 -19.475  0.00  0.00     0.077 A 
HETATM    9  C   UNK     0      18.400   0.426 -19.944  0.00  0.00     0.059 A 
HETATM   10  C   UNK     0      14.435   0.973 -19.086  0.00  0.00     0.001 A 
HETATM   11  C   UNK     0      16.461  -2.436 -20.102  0.00  0.00     0.257 A 
HETATM   12  C   UNK     0      16.750   2.492 -19.247  0.00  0.00     0.059 A 
HETATM   13  C   UNK     0      17.971  -2.284 -20.362  0.00  0.00     0.257 A 
HETATM   14  C   UNK     0      19.655   1.422 -19.999  0.00  0.00     0.048 A 
HETATM   15  C   UNK     0      17.983   3.517 -19.293  0.00  0.00     0.128 A 
HETATM   16  C   UNK     0      19.445   2.978 -19.672  0.00  0.00     0.036 A 
HETATM   17  C   UNK     0      14.560   2.487 -18.830  0.00  0.00     0.019 A 
HETATM   18  C   UNK     0      13.065   0.280 -18.952  0.00  0.00     0.028 A 
HETATM   19  C   UNK     0      13.317   3.308 -18.442  0.00  0.00     0.036 A 
HETATM   20  C   UNK     0      11.822   1.102 -18.564  0.00  0.00     0.005 A 
HETATM   21  C   UNK     0      11.948   2.615 -18.308  0.00  0.00     0.006 A 
ENDROOT
TORSDOF 0
ENDMDL
MODEL 6
REMARK VINA RESULT:      -6.9     15.356     16.867
REMARK  0 active torsions:
REMARK  status: ('A' for Active; 'I' for Inactive)
ROOT
HETATM    1 Cl   UNK     0      20.560  -0.784 -21.184  0.00  0.00    -0.100 Cl
HETATM    2 Cl   UNK     0      19.071   1.176 -20.374  0.00  0.00    -0.158 Cl
HETATM    3  O   UNK     0      12.260   1.718 -18.246  0.00  0.00    -0.165 OA
HETATM    4  O   UNK     0      12.100  -1.113 -18.728  0.00  0.00    -0.165 OA
HETATM    5  N   UNK     0      14.566  -1.416 -19.518  0.00  0.00    -0.222 NA
HETATM    6  N   UNK     0      14.759   1.991 -18.939  0.00  0.00    -0.217 NA
HETATM    7  C   UNK     0      16.742   0.275 -19.850  0.00  0.00     0.011 A 
HETATM    8  C   UNK     0      16.179   1.645 -19.426  0.00  0.00     0.077 A 
HETATM    9  C   UNK     0      16.024  -1.087 -19.891  0.00  0.00     0.059 A 
HETATM   10  C   UNK     0      17.166   2.824 -19.499  0.00  0.00     0.001 A 
HETATM   11  C   UNK     0      13.552   1.052 -18.755  0.00  0.00     0.257 A 
HETATM   12  C   UNK     0      18.280   0.408 -20.282  0.00  0.00     0.059 A 
HETATM   13  C   UNK     0      13.466  -0.464 -19.013  0.00  0.00     0.257 A 
HETATM   14  C   UNK     0      16.796  -2.410 -20.368  0.00  0.00     0.048 A 
HETATM   15  C   UNK     0      19.082  -0.894 -20.765  0.00  0.00     0.128 A 
HETATM   16  C   UNK     0      18.335  -2.312 -20.807  0.00  0.00     0.036 A 
HETATM   17  C   UNK     0      18.613   2.590 -19.974  0.00  0.00     0.019 A 
HETATM   18  C   UNK     0      16.707   4.239 -19.098  0.00  0.00     0.028 A 
HETATM   19  C   UNK     0      19.600   3.770 -20.047  0.00  0.00     0.036 A 
HETATM   20  C   UNK     0      17.694   5.419 -19.171  0.00  0.00     0.005 A 
HETATM   21  C   UNK     0      19.140   5.184 -19.646  0.00  0.00     0.006 A 
ENDROOT
TORSDOF 0
ENDMDL
MODEL 7
REMARK VINA RESULT:      -6.8      3.798      6.667
REMARK  0 active torsions:
REMARK  status: ('A' for Active; 'I' for Inactive)
ROOT
HETATM    1 Cl   UNK     0       6.789   2.791  -8.224  0.00  0.00    -0.100 Cl
HETATM    2 Cl   UNK     0       4.750   2.420  -9.779  0.00  0.00    -0.158 Cl
HETATM    3  O   UNK     0       0.622   6.744 -13.712  0.00  0.00    -0.165 OA
HETATM    4  O   UNK     0       2.280   8.879 -12.732  0.00  0.00    -0.165 OA
HETATM    5  N   UNK     0       3.840   7.390 -11.267  0.00  0.00    -0.222 NA
HETATM    6  N   UNK     0       1.845   4.820 -12.447  0.00  0.00    -0.217 NA
HETATM    7  C   UNK     0       4.009   4.676 -10.714  0.00  0.00     0.011 A 
HETATM    8  C   UNK     0       2.850   4.085 -11.539  0.00  0.00     0.077 A 
HETATM    9  C   UNK     0       4.449   6.146 -10.593  0.00  0.00     0.059 A 
HETATM   10  C   UNK     0       2.671   2.558 -11.444  0.00  0.00     0.001 A 
HETATM   11  C   UNK     0       1.752   6.327 -12.753  0.00  0.00     0.257 A 
HETATM   12  C   UNK     0       4.783   3.516  -9.922  0.00  0.00     0.059 A 
HETATM   13  C   UNK     0       2.640   7.470 -12.228  0.00  0.00     0.257 A 
HETATM   14  C   UNK     0       5.696   6.558  -9.671  0.00  0.00     0.048 A 
HETATM   15  C   UNK     0       6.034   3.892  -8.992  0.00  0.00     0.128 A 
HETATM   16  C   UNK     0       6.493   5.424  -8.866  0.00  0.00     0.036 A 
HETATM   17  C   UNK     0       3.621   1.725 -10.564  0.00  0.00     0.019 A 
HETATM   18  C   UNK     0       1.542   1.864 -12.229  0.00  0.00     0.028 A 
HETATM   19  C   UNK     0       3.443   0.198 -10.468  0.00  0.00     0.036 A 
HETATM   20  C   UNK     0       1.364   0.338 -12.134  0.00  0.00     0.005 A 
HETATM   21  C   UNK     0       2.314  -0.495 -11.253  0.00  0.00     0.006 A 
ENDROOT
TORSDOF 0
ENDMDL
MODEL 8
REMARK VINA RESULT:      -6.8     23.689     26.068
REMARK  0 active torsions:
REMARK  status: ('A' for Active; 'I' for Inactive)
ROOT
HETATM    1 Cl   UNK     0      14.162  -1.897 -33.087  0.00  0.00    -0.100 Cl
HETATM    2 Cl   UNK     0      12.754  -3.688 -31.854  0.00  0.00    -0.158 Cl
HETATM    3  O   UNK     0       9.817  -9.923 -33.781  0.00  0.00    -0.165 OA
HETATM    4  O   UNK     0      10.931  -9.409 -36.382  0.00  0.00    -0.165 OA
HETATM    5  N   UNK     0      12.039  -7.126 -35.780  0.00  0.00    -0.222 NA
HETATM    6  N   UNK     0      10.698  -7.745 -32.650  0.00  0.00    -0.217 NA
HETATM    7  C   UNK     0      12.202  -5.568 -33.490  0.00  0.00     0.011 A 
HETATM    8  C   UNK     0      11.407  -6.391 -32.458  0.00  0.00     0.077 A 
HETATM    9  C   UNK     0      12.483  -5.895 -34.967  0.00  0.00     0.059 A 
HETATM   10  C   UNK     0      11.309  -5.780 -31.048  0.00  0.00     0.001 A 
HETATM   11  C   UNK     0      10.608  -8.609 -33.922  0.00  0.00     0.257 A 
HETATM   12  C   UNK     0      12.758  -4.219 -32.824  0.00  0.00     0.059 A 
HETATM   13  C   UNK     0      11.205  -8.334 -35.315  0.00  0.00     0.257 A 
HETATM   14  C   UNK     0      13.341  -4.896 -35.883  0.00  0.00     0.048 A 
HETATM   15  C   UNK     0      13.620  -3.197 -33.710  0.00  0.00     0.128 A 
HETATM   16  C   UNK     0      13.913  -3.538 -35.250  0.00  0.00     0.036 A 
HETATM   17  C   UNK     0      11.983  -4.428 -30.745  0.00  0.00     0.019 A 
HETATM   18  C   UNK     0      10.538  -6.521 -29.939  0.00  0.00     0.028 A 
HETATM   19  C   UNK     0      11.884  -3.817 -29.335  0.00  0.00     0.036 A 
HETATM   20  C   UNK     0      10.439  -5.910 -28.529  0.00  0.00     0.005 A 
HETATM   21  C   UNK     0      11.113  -4.558 -28.228  0.00  0.00     0.006 A 
ENDROOT
TORSDOF 0
ENDMDL
MODEL 9
REMARK VINA RESULT:      -6.7     14.924     16.362
REMARK  0 active torsions:
REMARK  status: ('A' for Active; 'I' for Inactive)
ROOT
HETATM    1 Cl   UNK     0      12.792   3.809 -18.595  0.00  0.00    -0.100 Cl
HETATM    2 Cl   UNK     0      15.315   3.596 -19.142  0.00  0.00    -0.158 Cl
HETATM    3  O   UNK     0      19.620  -1.881 -20.780  0.00  0.00    -0.165 OA
HETATM    4  O   UNK     0      17.277  -3.530 -20.528  0.00  0.00    -0.165 OA
HETATM    5  N   UNK     0      15.627  -1.604 -19.924  0.00  0.00    -0.222 NA
HETATM    6  N   UNK     0      18.446   0.380 -20.227  0.00  0.00    -0.217 NA
HETATM    7  C   UNK     0      15.854   1.142 -19.591  0.00  0.00     0.011 A 
HETATM    8  C   UNK     0      17.348   1.398 -19.862  0.00  0.00     0.077 A 
HETATM    9  C   UNK     0      15.088  -0.193 -19.618  0.00  0.00     0.059 A 
HETATM   10  C   UNK     0      17.806   2.864 -19.753  0.00  0.00     0.001 A 
HETATM   11  C   UNK     0      18.319  -1.144 -20.411  0.00  0.00     0.257 A 
HETATM   12  C   UNK     0      15.102   2.516 -19.247  0.00  0.00     0.059 A 
HETATM   13  C   UNK     0      17.065  -2.027 -20.276  0.00  0.00     0.257 A 
HETATM   14  C   UNK     0      13.516  -0.247 -19.304  0.00  0.00     0.048 A 
HETATM   15  C   UNK     0      13.530   2.499 -18.927  0.00  0.00     0.128 A 
HETATM   16  C   UNK     0      12.732   1.108 -18.956  0.00  0.00     0.036 A 
HETATM   17  C   UNK     0      16.790   3.964 -19.393  0.00  0.00     0.019 A 
HETATM   18  C   UNK     0      19.281   3.231 -20.004  0.00  0.00     0.028 A 
HETATM   19  C   UNK     0      17.247   5.430 -19.284  0.00  0.00     0.036 A 
HETATM   20  C   UNK     0      19.739   4.697 -19.896  0.00  0.00     0.005 A 
HETATM   21  C   UNK     0      18.721   5.796 -19.535  0.00  0.00     0.006 A 
ENDROOT
TORSDOF 0
ENDMDL
MODEL 10
REMARK VINA RESULT:      -6.7     26.153     28.108
REMARK  0 active torsions:
REMARK  status: ('A' for Active; 'I' for Inactive)
ROOT
HETATM    1 Cl   UNK     0     -25.753  15.638 -16.842  0.00  0.00    -0.100 Cl
HETATM    2 Cl   UNK     0     -23.577  14.371 -16.234  0.00  0.00    -0.158 Cl
HETATM    3  O   UNK     0     -21.423  10.599 -10.547  0.00  0.00    -0.165 OA
HETATM    4  O   UNK     0     -24.006  11.194  -9.432  0.00  0.00    -0.165 OA
HETATM    5  N   UNK     0     -24.885  12.585 -11.454  0.00  0.00    -0.222 NA
HETATM    6  N   UNK     0     -21.776  11.870 -12.796  0.00  0.00    -0.217 NA
HETATM    7  C   UNK     0     -23.847  13.342 -13.914  0.00  0.00     0.011 A 
HETATM    8  C   UNK     0     -22.441  12.712 -13.901  0.00  0.00     0.077 A 
HETATM    9  C   UNK     0     -24.934  13.286 -12.826  0.00  0.00     0.059 A 
HETATM   10  C   UNK     0     -21.587  12.957 -15.160  0.00  0.00     0.001 A 
HETATM   11  C   UNK     0     -22.353  11.450 -11.431  0.00  0.00     0.257 A 
HETATM   12  C   UNK     0     -24.096  14.133 -15.287  0.00  0.00     0.059 A 
HETATM   13  C   UNK     0     -23.737  11.768 -10.834  0.00  0.00     0.257 A 
HETATM   14  C   UNK     0     -26.347  14.016 -13.034  0.00  0.00     0.048 A 
HETATM   15  C   UNK     0     -25.497  14.875 -15.529  0.00  0.00     0.128 A 
HETATM   16  C   UNK     0     -26.630  14.816 -14.395  0.00  0.00     0.036 A 
HETATM   17  C   UNK     0     -22.155  13.786 -16.326  0.00  0.00     0.019 A 
HETATM   18  C   UNK     0     -20.166  12.371 -15.251  0.00  0.00     0.028 A 
HETATM   19  C   UNK     0     -21.302  14.031 -17.585  0.00  0.00     0.036 A 
HETATM   20  C   UNK     0     -19.312  12.615 -16.510  0.00  0.00     0.005 A 
HETATM   21  C   UNK     0     -19.880  13.445 -17.676  0.00  0.00     0.006 A 
ENDROOT
TORSDOF 0
ENDMDL
