MODEL 1
REMARK VINA RESULT:      -5.9      0.000      0.000
REMARK  1 active torsions:
REMARK  status: ('A' for Active; 'I' for Inactive)
REMARK    1  A    between atoms: C_10  and  C_11 
ROOT
HETATM    1  N   UNK     0      -2.995  -8.670 -11.447  0.00  0.00    -0.348 N 
HETATM    2  C   UNK     0      -3.039  -6.711  -9.892  0.00  0.00     0.021 A 
HETATM    3  C   UNK     0      -2.941  -7.728 -10.620  0.00  0.00     0.083 A 
HETATM    4  C   UNK     0      -0.384  -8.088  -8.244  0.00  0.00     0.004 A 
HETATM    5  C   UNK     0      -1.000  -8.525  -9.245  0.00  0.00     0.019 A 
HETATM    6  C   UNK     0      -0.646  -6.790  -7.458  0.00  0.00     0.002 A 
HETATM    7  C   UNK     0       0.942 -10.168  -8.560  0.00  0.00     0.000 A 
HETATM    8  C   UNK     0       0.326 -10.605  -9.561  0.00  0.00     0.002 A 
HETATM    9  C   UNK     0      -3.288  -5.646  -9.281  0.00  0.00     0.004 A 
HETATM   10  C   UNK     0      -4.013  -6.160 -10.458  0.00  0.00     0.024 A 
HETATM   11  C   UNK     0      -3.883  -7.494 -11.413  0.00  0.00     0.100 A 
HETATM   12  C   UNK     0      -2.180  -9.619 -11.370  0.00  0.00     0.090 C 
ENDROOT
TORSDOF 1
ENDMDL
MODEL 2
REMARK VINA RESULT:      -5.8     23.408     25.211
REMARK  1 active torsions:
REMARK  status: ('A' for Active; 'I' for Inactive)
REMARK    1  A    between atoms: C_10  and  C_11 
ROOT
HETATM    1  N   UNK     0      -7.224  -3.268 -33.390  0.00  0.00    -0.348 N 
HETATM    2  C   UNK     0      -7.356  -5.716 -32.896  0.00  0.00     0.021 A 
HETATM    3  C   UNK     0      -7.227  -4.510 -33.216  0.00  0.00     0.083 A 
HETATM    4  C   UNK     0      -5.164  -6.248 -35.460  0.00  0.00     0.004 A 
HETATM    5  C   UNK     0      -5.635  -5.164 -35.041  0.00  0.00     0.019 A 
HETATM    6  C   UNK     0      -5.438  -7.670 -34.935  0.00  0.00     0.002 A 
HETATM    7  C   UNK     0      -4.002  -4.746 -37.064  0.00  0.00     0.000 A 
HETATM    8  C   UNK     0      -4.473  -3.662 -36.646  0.00  0.00     0.002 A 
HETATM    9  C   UNK     0      -7.607  -6.855 -32.438  0.00  0.00     0.004 A 
HETATM   10  C   UNK     0      -8.162  -5.580 -31.945  0.00  0.00     0.024 A 
HETATM   11  C   UNK     0      -7.993  -3.998 -32.365  0.00  0.00     0.100 A 
HETATM   12  C   UNK     0      -6.525  -2.764 -34.300  0.00  0.00     0.090 C 
ENDROOT
TORSDOF 1
ENDMDL
MODEL 3
REMARK VINA RESULT:      -5.7     28.497     29.458
REMARK  1 active torsions:
REMARK  status: ('A' for Active; 'I' for Inactive)
REMARK    1  A    between atoms: C_10  and  C_11 
ROOT
HETATM    1  N   UNK     0       9.562  -4.369 -36.023  0.00  0.00    -0.348 N 
HETATM    2  C   UNK     0      10.550  -6.635 -35.645  0.00  0.00     0.021 A 
HETATM    3  C   UNK     0      10.145  -5.461 -35.825  0.00  0.00     0.083 A 
HETATM    4  C   UNK     0      13.607  -5.141 -35.354  0.00  0.00     0.004 A 
HETATM    5  C   UNK     0      12.492  -4.612 -35.571  0.00  0.00     0.019 A 
HETATM    6  C   UNK     0      13.929  -6.634 -35.153  0.00  0.00     0.002 A 
HETATM    7  C   UNK     0      14.386  -2.783 -35.483  0.00  0.00     0.000 A 
HETATM    8  C   UNK     0      13.270  -2.254 -35.700  0.00  0.00     0.002 A 
HETATM    9  C   UNK     0      10.767  -7.858 -35.488  0.00  0.00     0.004 A 
HETATM   10  C   UNK     0       9.455  -7.236 -35.743  0.00  0.00     0.024 A 
HETATM   11  C   UNK     0       8.924  -5.697 -35.979  0.00  0.00     0.100 A 
HETATM   12  C   UNK     0      10.218  -3.301 -36.037  0.00  0.00     0.090 C 
ENDROOT
TORSDOF 1
ENDMDL
MODEL 4
REMARK VINA RESULT:      -5.6     27.749     30.375
REMARK  1 active torsions:
REMARK  status: ('A' for Active; 'I' for Inactive)
REMARK    1  A    between atoms: C_10  and  C_11 
ROOT
HETATM    1  N   UNK     0     -20.167  12.975 -16.253  0.00  0.00    -0.348 N 
HETATM    2  C   UNK     0     -20.495  12.101 -18.573  0.00  0.00     0.021 A 
HETATM    3  C   UNK     0     -20.415  12.588 -17.420  0.00  0.00     0.083 A 
HETATM    4  C   UNK     0     -23.405  13.881 -18.724  0.00  0.00     0.004 A 
HETATM    5  C   UNK     0     -22.583  13.798 -17.781  0.00  0.00     0.019 A 
HETATM    6  C   UNK     0     -23.344  13.198 -20.103  0.00  0.00     0.002 A 
HETATM    7  C   UNK     0     -24.587  15.377 -17.128  0.00  0.00     0.000 A 
HETATM    8  C   UNK     0     -23.765  15.295 -16.185  0.00  0.00     0.002 A 
HETATM    9  C   UNK     0     -20.405  11.526 -19.683  0.00  0.00     0.004 A 
HETATM   10  C   UNK     0     -19.438  11.428 -18.574  0.00  0.00     0.024 A 
HETATM   11  C   UNK     0     -19.333  12.067 -17.062  0.00  0.00     0.100 A 
HETATM   12  C   UNK     0     -20.959  13.751 -15.668  0.00  0.00     0.090 C 
ENDROOT
TORSDOF 1
ENDMDL
MODEL 5
REMARK VINA RESULT:      -5.6     27.885     30.121
REMARK  1 active torsions:
REMARK  status: ('A' for Active; 'I' for Inactive)
REMARK    1  A    between atoms: C_10  and  C_11 
ROOT
HETATM    1  N   UNK     0     -22.618  12.700 -19.569  0.00  0.00    -0.348 N 
HETATM    2  C   UNK     0     -20.465  11.983 -18.520  0.00  0.00     0.021 A 
HETATM    3  C   UNK     0     -21.565  12.390 -18.962  0.00  0.00     0.083 A 
HETATM    4  C   UNK     0     -21.376  13.703 -15.714  0.00  0.00     0.004 A 
HETATM    5  C   UNK     0     -22.000  13.574 -16.794  0.00  0.00     0.019 A 
HETATM    6  C   UNK     0     -20.002  13.120 -15.334  0.00  0.00     0.002 A 
HETATM    7  C   UNK     0     -23.369  15.058 -15.103  0.00  0.00     0.000 A 
HETATM    8  C   UNK     0     -23.993  14.928 -16.182  0.00  0.00     0.002 A 
HETATM    9  C   UNK     0     -19.345  11.488 -18.252  0.00  0.00     0.004 A 
HETATM   10  C   UNK     0     -20.079  11.335 -19.521  0.00  0.00     0.024 A 
HETATM   11  C   UNK     0     -21.522  11.870 -20.102  0.00  0.00     0.100 A 
HETATM   12  C   UNK     0     -23.479  13.416 -19.006  0.00  0.00     0.090 C 
ENDROOT
TORSDOF 1
ENDMDL
MODEL 6
REMARK VINA RESULT:      -5.4     28.430     29.554
REMARK  1 active torsions:
REMARK  status: ('A' for Active; 'I' for Inactive)
REMARK    1  A    between atoms: C_10  and  C_11 
ROOT
HETATM    1  N   UNK     0      12.664  -7.131 -35.736  0.00  0.00    -0.348 N 
HETATM    2  C   UNK     0      10.282  -6.370 -35.697  0.00  0.00     0.021 A 
HETATM    3  C   UNK     0      11.502  -6.657 -35.713  0.00  0.00     0.083 A 
HETATM    4  C   UNK     0      11.417  -3.152 -35.589  0.00  0.00     0.004 A 
HETATM    5  C   UNK     0      12.078  -4.217 -35.630  0.00  0.00     0.019 A 
HETATM    6  C   UNK     0       9.887  -2.981 -35.575  0.00  0.00     0.002 A 
HETATM    7  C   UNK     0      13.685  -2.131 -35.564  0.00  0.00     0.000 A 
HETATM    8  C   UNK     0      14.345  -3.196 -35.605  0.00  0.00     0.002 A 
HETATM    9  C   UNK     0       9.032  -6.277 -35.688  0.00  0.00     0.004 A 
HETATM   10  C   UNK     0       9.808  -7.530 -35.736  0.00  0.00     0.024 A 
HETATM   11  C   UNK     0      11.410  -7.907 -35.757  0.00  0.00     0.100 A 
HETATM   12  C   UNK     0      13.655  -6.364 -35.714  0.00  0.00     0.090 C 
ENDROOT
TORSDOF 1
ENDMDL
MODEL 7
REMARK VINA RESULT:      -5.4     23.949     24.602
REMARK  1 active torsions:
REMARK  status: ('A' for Active; 'I' for Inactive)
REMARK    1  A    between atoms: C_10  and  C_11 
ROOT
HETATM    1  N   UNK     0      18.407  -0.895 -21.921  0.00  0.00    -0.348 N 
HETATM    2  C   UNK     0      18.220   1.591 -22.111  0.00  0.00     0.021 A 
HETATM    3  C   UNK     0      18.307   0.355 -21.918  0.00  0.00     0.083 A 
HETATM    4  C   UNK     0      18.013   1.735 -18.706  0.00  0.00     0.004 A 
HETATM    5  C   UNK     0      18.135   0.729 -19.443  0.00  0.00     0.019 A 
HETATM    6  C   UNK     0      17.919   3.214 -19.123  0.00  0.00     0.002 A 
HETATM    7  C   UNK     0      18.046   0.016 -16.909  0.00  0.00     0.000 A 
HETATM    8  C   UNK     0      18.168  -0.990 -17.647  0.00  0.00     0.002 A 
HETATM    9  C   UNK     0      18.148   2.782 -22.494  0.00  0.00     0.004 A 
HETATM   10  C   UNK     0      18.292   1.599 -23.363  0.00  0.00     0.024 A 
HETATM   11  C   UNK     0      18.406  -0.023 -23.109  0.00  0.00     0.100 A 
HETATM   12  C   UNK     0      18.395  -1.528 -20.839  0.00  0.00     0.090 C 
ENDROOT
TORSDOF 1
ENDMDL
MODEL 8
REMARK VINA RESULT:      -5.3     23.981     24.750
REMARK  1 active torsions:
REMARK  status: ('A' for Active; 'I' for Inactive)
REMARK    1  A    between atoms: C_10  and  C_11 
ROOT
HETATM    1  N   UNK     0      18.164   2.843 -20.873  0.00  0.00    -0.348 N 
HETATM    2  C   UNK     0      18.235   0.839 -22.367  0.00  0.00     0.021 A 
HETATM    3  C   UNK     0      18.200   1.782 -21.542  0.00  0.00     0.083 A 
HETATM    4  C   UNK     0      18.241  -1.121 -19.571  0.00  0.00     0.004 A 
HETATM    5  C   UNK     0      18.212   0.130 -19.653  0.00  0.00     0.019 A 
HETATM    6  C   UNK     0      18.283  -2.149 -20.716  0.00  0.00     0.002 A 
HETATM    7  C   UNK     0      18.192  -0.634 -17.133  0.00  0.00     0.000 A 
HETATM    8  C   UNK     0      18.163   0.617 -17.216  0.00  0.00     0.002 A 
HETATM    9  C   UNK     0      18.269   0.037 -23.329  0.00  0.00     0.004 A 
HETATM   10  C   UNK     0      18.235   1.507 -23.428  0.00  0.00     0.024 A 
HETATM   11  C   UNK     0      18.189   2.745 -22.344  0.00  0.00     0.100 A 
HETATM   12  C   UNK     0      18.146   2.794 -19.621  0.00  0.00     0.090 C 
ENDROOT
TORSDOF 1
ENDMDL
MODEL 9
REMARK VINA RESULT:      -5.3     23.358     24.475
REMARK  1 active torsions:
REMARK  status: ('A' for Active; 'I' for Inactive)
REMARK    1  A    between atoms: C_10  and  C_11 
ROOT
HETATM    1  N   UNK     0      18.362  -0.323 -17.671  0.00  0.00    -0.348 N 
HETATM    2  C   UNK     0      18.532  -1.858 -19.637  0.00  0.00     0.021 A 
HETATM    3  C   UNK     0      18.447  -1.013 -18.715  0.00  0.00     0.083 A 
HETATM    4  C   UNK     0      18.521   0.894 -21.659  0.00  0.00     0.004 A 
HETATM    5  C   UNK     0      18.457   0.838 -20.408  0.00  0.00     0.019 A 
HETATM    6  C   UNK     0      18.624  -0.272 -22.659  0.00  0.00     0.002 A 
HETATM    7  C   UNK     0      18.393   3.340 -21.229  0.00  0.00     0.000 A 
HETATM    8  C   UNK     0      18.329   3.284 -19.978  0.00  0.00     0.002 A 
HETATM    9  C   UNK     0      18.615  -2.836 -20.416  0.00  0.00     0.004 A 
HETATM   10  C   UNK     0      18.541  -2.903 -18.945  0.00  0.00     0.024 A 
HETATM   11  C   UNK     0      18.429  -1.794 -17.734  0.00  0.00     0.100 A 
HETATM   12  C   UNK     0      18.313   0.927 -17.748  0.00  0.00     0.090 C 
ENDROOT
TORSDOF 1
ENDMDL
MODEL 10
REMARK VINA RESULT:      -5.3     23.311     25.080
REMARK  1 active torsions:
REMARK  status: ('A' for Active; 'I' for Inactive)
REMARK    1  A    between atoms: C_10  and  C_11 
ROOT
HETATM    1  N   UNK     0      -6.045  -7.596 -33.917  0.00  0.00    -0.348 N 
HETATM    2  C   UNK     0      -7.344  -5.751 -32.839  0.00  0.00     0.021 A 
HETATM    3  C   UNK     0      -6.654  -6.609 -33.440  0.00  0.00     0.083 A 
HETATM    4  C   UNK     0      -5.881  -3.578 -35.030  0.00  0.00     0.004 A 
HETATM    5  C   UNK     0      -5.722  -4.818 -34.929  0.00  0.00     0.019 A 
HETATM    6  C   UNK     0      -6.791  -2.664 -34.189  0.00  0.00     0.002 A 
HETATM    7  C   UNK     0      -4.234  -3.847 -36.874  0.00  0.00     0.000 A 
HETATM    8  C   UNK     0      -4.075  -5.087 -36.772  0.00  0.00     0.002 A 
HETATM    9  C   UNK     0      -8.097  -5.044 -32.130  0.00  0.00     0.004 A 
HETATM   10  C   UNK     0      -7.911  -6.501 -32.011  0.00  0.00     0.024 A 
HETATM   11  C   UNK     0      -7.005  -7.627 -32.799  0.00  0.00     0.100 A 
HETATM   12  C   UNK     0      -5.249  -7.440 -34.873  0.00  0.00     0.090 C 
ENDROOT
TORSDOF 1
ENDMDL
