MODEL 1
REMARK VINA RESULT:      -6.7      0.000      0.000
REMARK  7 active torsions:
REMARK  status: ('A' for Active; 'I' for Inactive)
REMARK    1  A    between atoms: O_1  and  C_16 
REMARK    2  A    between atoms: O_1  and  C_24 
REMARK    3  A    between atoms: O_2  and  C_18 
REMARK    4  A    between atoms: O_2  and  C_26 
REMARK    5  A    between atoms: O_5  and  C_29 
REMARK    6  A    between atoms: N_9  and  C_22 
REMARK    7  A    between atoms: C_26  and  C_29 
ROOT
HETATM    1  O   UNK     0       3.004   3.128  -9.816  0.00  0.00    -0.290 OA
HETATM    2  O   UNK     0       1.884   7.335 -12.900  0.00  0.00    -0.284 OA
HETATM    3  N   UNK     0       0.965   2.393 -14.690  0.00  0.00    -0.254 NA
HETATM    4  C   UNK     0       1.951   4.285 -12.469  0.00  0.00     0.014 A 
HETATM    5  C   UNK     0       1.984   2.761 -12.253  0.00  0.00     0.060 A 
HETATM    6  C   UNK     0       1.425   4.864 -13.795  0.00  0.00     0.060 A 
HETATM    7  C   UNK     0       2.444   5.231 -11.358  0.00  0.00     0.043 A 
HETATM    8  C   UNK     0       1.491   1.815 -13.364  0.00  0.00     0.063 A 
HETATM    9  C   UNK     0       0.932   3.918 -14.906  0.00  0.00     0.063 A 
HETATM   10  C   UNK     0       2.511   2.182 -10.927  0.00  0.00     0.200 A 
HETATM   11  C   UNK     0       2.410   6.756 -11.573  0.00  0.00     0.121 A 
HETATM   12  C   UNK     0       1.391   6.389 -14.011  0.00  0.00     0.200 A 
HETATM   13  C   UNK     0       2.970   4.653 -10.031  0.00  0.00     0.082 A 
HETATM   14  C   UNK     0       1.525   0.291 -13.148  0.00  0.00     0.052 C 
HETATM   15  C   UNK     0       0.405   4.497 -16.233  0.00  0.00     0.052 C 
HETATM   16  C   UNK     0       2.903   7.702 -10.463  0.00  0.00     0.127 A 
HETATM   17  C   UNK     0       3.463   5.599  -8.921  0.00  0.00     0.058 A 
HETATM   18  C   UNK     0       3.429   7.123  -9.136  0.00  0.00     0.059 A 
ENDROOT
BRANCH  12  19
HETATM   19  O   UNK     0       0.865   6.968 -15.338  0.00  0.00    -0.308 OA
BRANCH  19  20
HETATM   20  C   UNK     0       1.715   7.979 -16.127  0.00  0.00     0.183 C 
BRANCH  20  21
HETATM   21  C   UNK     0       2.561   7.506 -17.324  0.00  0.00     0.175 C 
BRANCH  21  22
HETATM   22  O   UNK     0       4.025   7.075 -17.110  0.00  0.00    -0.349 OA
HETATM   23  C   UNK     0       4.372   6.039 -16.024  0.00  0.00     0.174 C 
ENDBRANCH  21  22
ENDBRANCH  20  21
ENDBRANCH  19  20
ENDBRANCH  12  19
BRANCH  16  24
HETATM   24  N   UNK     0       2.869   9.226 -10.678  0.00  0.00    -0.116 N 
HETATM   25  O   UNK     0       4.064   9.936 -11.343  0.00  0.00    -0.532 OA
HETATM   26  O   UNK     0       1.642  10.041 -10.230  0.00  0.00    -0.532 OA
ENDBRANCH  16  24
BRANCH  10  27
HETATM   27  O   UNK     0       2.544   0.658 -10.711  0.00  0.00    -0.313 OA
BRANCH  27  28
HETATM   28  C   UNK     0       3.887  -0.095 -10.743  0.00  0.00     0.124 C 
HETATM   29  C   UNK     0       3.907  -1.635 -10.763  0.00  0.00     0.033 C 
HETATM   30  C   UNK     0       5.211   0.693 -10.756  0.00  0.00     0.033 C 
ENDBRANCH  27  28
ENDBRANCH  10  27
TORSDOF 7
ENDMDL
MODEL 2
REMARK VINA RESULT:      -6.2      2.568      5.693
REMARK  7 active torsions:
REMARK  status: ('A' for Active; 'I' for Inactive)
REMARK    1  A    between atoms: O_1  and  C_16 
REMARK    2  A    between atoms: O_1  and  C_24 
REMARK    3  A    between atoms: O_2  and  C_18 
REMARK    4  A    between atoms: O_2  and  C_26 
REMARK    5  A    between atoms: O_5  and  C_29 
REMARK    6  A    between atoms: N_9  and  C_22 
REMARK    7  A    between atoms: C_26  and  C_29 
ROOT
HETATM    1  O   UNK     0       0.385   5.364 -14.205  0.00  0.00    -0.290 OA
HETATM    2  O   UNK     0       4.549   6.579 -11.099  0.00  0.00    -0.284 OA
HETATM    3  N   UNK     0       4.066   1.661 -13.109  0.00  0.00    -0.254 NA
HETATM    4  C   UNK     0       3.000   4.535 -12.804  0.00  0.00     0.014 A 
HETATM    5  C   UNK     0       2.226   3.513 -13.657  0.00  0.00     0.060 A 
HETATM    6  C   UNK     0       4.308   4.120 -12.104  0.00  0.00     0.060 A 
HETATM    7  C   UNK     0       2.467   5.971 -12.652  0.00  0.00     0.043 A 
HETATM    8  C   UNK     0       2.759   2.076 -13.809  0.00  0.00     0.063 A 
HETATM    9  C   UNK     0       4.841   2.684 -12.256  0.00  0.00     0.063 A 
HETATM   10  C   UNK     0       0.918   3.927 -14.357  0.00  0.00     0.200 A 
HETATM   11  C   UNK     0       3.241   6.994 -11.799  0.00  0.00     0.121 A 
HETATM   12  C   UNK     0       5.082   5.143 -11.251  0.00  0.00     0.200 A 
HETATM   13  C   UNK     0       1.160   6.386 -13.352  0.00  0.00     0.082 A 
HETATM   14  C   UNK     0       1.985   1.054 -14.662  0.00  0.00     0.052 C 
HETATM   15  C   UNK     0       6.149   2.270 -11.556  0.00  0.00     0.052 C 
HETATM   16  C   UNK     0       2.708   8.430 -11.647  0.00  0.00     0.127 A 
HETATM   17  C   UNK     0       0.626   7.823 -13.199  0.00  0.00     0.058 A 
HETATM   18  C   UNK     0       1.400   8.845 -12.347  0.00  0.00     0.059 A 
ENDROOT
BRANCH  12  19
HETATM   19  O   UNK     0       6.390   4.729 -10.551  0.00  0.00    -0.308 OA
BRANCH  19  20
HETATM   20  C   UNK     0       6.509   4.831  -9.019  0.00  0.00     0.183 C 
BRANCH  20  21
HETATM   21  C   UNK     0       6.524   3.552  -8.161  0.00  0.00     0.175 C 
BRANCH  21  22
HETATM   22  O   UNK     0       5.324   2.586  -8.197  0.00  0.00    -0.349 OA
HETATM   23  C   UNK     0       3.902   3.132  -8.428  0.00  0.00     0.174 C 
ENDBRANCH  21  22
ENDBRANCH  20  21
ENDBRANCH  19  20
ENDBRANCH  12  19
BRANCH  16  24
HETATM   24  N   UNK     0       3.482   9.453 -10.794  0.00  0.00    -0.116 N 
HETATM   25  O   UNK     0       3.149   9.618  -9.299  0.00  0.00    -0.532 OA
HETATM   26  O   UNK     0       4.590  10.310 -11.435  0.00  0.00    -0.532 OA
ENDBRANCH  16  24
BRANCH  10  27
HETATM   27  O   UNK     0       0.145   2.905 -15.209  0.00  0.00    -0.313 OA
BRANCH  27  28
HETATM   28  C   UNK     0       0.118   3.044 -16.743  0.00  0.00     0.124 C 
HETATM   29  C   UNK     0       0.794   4.252 -17.419  0.00  0.00     0.033 C 
HETATM   30  C   UNK     0      -0.585   1.976 -17.601  0.00  0.00     0.033 C 
ENDBRANCH  27  28
ENDBRANCH  10  27
TORSDOF 7
ENDMDL
MODEL 3
REMARK VINA RESULT:      -6.2      2.324      5.359
REMARK  7 active torsions:
REMARK  status: ('A' for Active; 'I' for Inactive)
REMARK    1  A    between atoms: O_1  and  C_16 
REMARK    2  A    between atoms: O_1  and  C_24 
REMARK    3  A    between atoms: O_2  and  C_18 
REMARK    4  A    between atoms: O_2  and  C_26 
REMARK    5  A    between atoms: O_5  and  C_29 
REMARK    6  A    between atoms: N_9  and  C_22 
REMARK    7  A    between atoms: C_26  and  C_29 
ROOT
HETATM    1  O   UNK     0       2.717   1.980 -10.461  0.00  0.00    -0.290 OA
HETATM    2  O   UNK     0       0.611   3.853 -14.990  0.00  0.00    -0.284 OA
HETATM    3  N   UNK     0       2.256   7.241 -11.212  0.00  0.00    -0.254 NA
HETATM    4  C   UNK     0       1.861   4.358 -12.221  0.00  0.00     0.014 A 
HETATM    5  C   UNK     0       2.486   4.611 -10.837  0.00  0.00     0.060 A 
HETATM    6  C   UNK     0       1.434   5.547 -13.101  0.00  0.00     0.060 A 
HETATM    7  C   UNK     0       1.664   2.916 -12.725  0.00  0.00     0.043 A 
HETATM    8  C   UNK     0       2.683   6.052 -10.332  0.00  0.00     0.063 A 
HETATM    9  C   UNK     0       1.631   6.989 -12.597  0.00  0.00     0.063 A 
HETATM   10  C   UNK     0       2.914   3.422  -9.956  0.00  0.00     0.200 A 
HETATM   11  C   UNK     0       1.039   2.664 -14.110  0.00  0.00     0.121 A 
HETATM   12  C   UNK     0       0.808   5.295 -14.486  0.00  0.00     0.200 A 
HETATM   13  C   UNK     0       2.092   1.728 -11.845  0.00  0.00     0.082 A 
HETATM   14  C   UNK     0       3.308   6.305  -8.947  0.00  0.00     0.052 C 
HETATM   15  C   UNK     0       1.203   8.178 -13.477  0.00  0.00     0.052 C 
HETATM   16  C   UNK     0       0.842   1.222 -14.614  0.00  0.00     0.127 A 
HETATM   17  C   UNK     0       1.895   0.286 -12.350  0.00  0.00     0.058 A 
HETATM   18  C   UNK     0       1.270   0.033 -13.734  0.00  0.00     0.059 A 
ENDROOT
BRANCH  12  19
HETATM   19  O   UNK     0       0.380   6.484 -15.366  0.00  0.00    -0.308 OA
BRANCH  19  20
HETATM   20  C   UNK     0       1.183   6.831 -16.633  0.00  0.00     0.183 C 
BRANCH  20  21
HETATM   21  C   UNK     0       2.665   6.427 -16.741  0.00  0.00     0.175 C 
BRANCH  21  22
HETATM   22  O   UNK     0       3.711   7.081 -15.819  0.00  0.00    -0.349 OA
HETATM   23  C   UNK     0       4.598   6.204 -14.915  0.00  0.00     0.174 C 
ENDBRANCH  21  22
ENDBRANCH  20  21
ENDBRANCH  19  20
ENDBRANCH  12  19
BRANCH  16  24
HETATM   24  N   UNK     0       0.217   0.970 -15.999  0.00  0.00    -0.116 N 
HETATM   25  O   UNK     0       1.003   0.189 -17.068  0.00  0.00    -0.532 OA
HETATM   26  O   UNK     0      -1.195   1.499 -16.315  0.00  0.00    -0.532 OA
ENDBRANCH  16  24
BRANCH  10  27
HETATM   27  O   UNK     0       3.539   3.674  -8.572  0.00  0.00    -0.313 OA
BRANCH  27  28
HETATM   28  C   UNK     0       4.826   2.935  -8.162  0.00  0.00     0.124 C 
HETATM   29  C   UNK     0       6.049   2.941  -9.098  0.00  0.00     0.033 C 
HETATM   30  C   UNK     0       4.891   2.191  -6.815  0.00  0.00     0.033 C 
ENDBRANCH  27  28
ENDBRANCH  10  27
TORSDOF 7
ENDMDL
MODEL 4
REMARK VINA RESULT:      -6.1     20.688     23.739
REMARK  7 active torsions:
REMARK  status: ('A' for Active; 'I' for Inactive)
REMARK    1  A    between atoms: O_1  and  C_16 
REMARK    2  A    between atoms: O_1  and  C_24 
REMARK    3  A    between atoms: O_2  and  C_18 
REMARK    4  A    between atoms: O_2  and  C_26 
REMARK    5  A    between atoms: O_5  and  C_29 
REMARK    6  A    between atoms: N_9  and  C_22 
REMARK    7  A    between atoms: C_26  and  C_29 
ROOT
HETATM    1  O   UNK     0      10.091  -6.596 -28.116  0.00  0.00    -0.290 OA
HETATM    2  O   UNK     0      12.363  -6.877 -32.935  0.00  0.00    -0.284 OA
HETATM    3  N   UNK     0      12.434  -2.288 -30.215  0.00  0.00    -0.254 NA
HETATM    4  C   UNK     0      11.629  -5.253 -30.422  0.00  0.00     0.014 A 
HETATM    5  C   UNK     0      11.262  -4.442 -29.166  0.00  0.00     0.060 A 
HETATM    6  C   UNK     0      12.398  -4.582 -31.575  0.00  0.00     0.060 A 
HETATM    7  C   UNK     0      11.227  -6.736 -30.525  0.00  0.00     0.043 A 
HETATM    8  C   UNK     0      11.665  -2.959 -29.063  0.00  0.00     0.063 A 
HETATM    9  C   UNK     0      12.801  -3.099 -31.472  0.00  0.00     0.063 A 
HETATM   10  C   UNK     0      10.493  -5.113 -28.013  0.00  0.00     0.200 A 
HETATM   11  C   UNK     0      11.593  -7.548 -31.781  0.00  0.00     0.121 A 
HETATM   12  C   UNK     0      12.765  -5.394 -32.831  0.00  0.00     0.200 A 
HETATM   13  C   UNK     0      10.458  -7.408 -29.372  0.00  0.00     0.082 A 
HETATM   14  C   UNK     0      11.298  -2.147 -27.806  0.00  0.00     0.052 C 
HETATM   15  C   UNK     0      13.570  -2.428 -32.625  0.00  0.00     0.052 C 
HETATM   16  C   UNK     0      11.191  -9.031 -31.885  0.00  0.00     0.127 A 
HETATM   17  C   UNK     0      10.055  -8.890 -29.476  0.00  0.00     0.058 A 
HETATM   18  C   UNK     0      10.422  -9.702 -30.731  0.00  0.00     0.059 A 
ENDROOT
BRANCH  12  19
HETATM   19  O   UNK     0      13.535  -4.723 -33.985  0.00  0.00    -0.308 OA
BRANCH  19  20
HETATM   20  C   UNK     0      12.923  -4.681 -35.397  0.00  0.00     0.183 C 
BRANCH  20  21
HETATM   21  C   UNK     0      12.850  -3.349 -36.166  0.00  0.00     0.175 C 
BRANCH  21  22
HETATM   22  O   UNK     0      11.585  -2.474 -36.075  0.00  0.00    -0.349 OA
HETATM   23  C   UNK     0      10.192  -3.127 -36.143  0.00  0.00     0.174 C 
ENDBRANCH  21  22
ENDBRANCH  20  21
ENDBRANCH  19  20
ENDBRANCH  12  19
BRANCH  16  24
HETATM   24  N   UNK     0      11.558  -9.843 -33.141  0.00  0.00    -0.116 N 
HETATM   25  O   UNK     0      10.451 -10.324 -34.097  0.00  0.00    -0.532 OA
HETATM   26  O   UNK     0      13.032 -10.174 -33.441  0.00  0.00    -0.532 OA
ENDBRANCH  16  24
BRANCH  10  27
HETATM   27  O   UNK     0      10.127  -4.301 -26.757  0.00  0.00    -0.313 OA
BRANCH  27  28
HETATM   28  C   UNK     0      10.737  -4.675 -25.393  0.00  0.00     0.124 C 
HETATM   29  C   UNK     0      10.292  -3.931 -24.120  0.00  0.00     0.033 C 
HETATM   30  C   UNK     0      11.791  -5.794 -25.302  0.00  0.00     0.033 C 
ENDBRANCH  27  28
ENDBRANCH  10  27
TORSDOF 7
ENDMDL
MODEL 5
REMARK VINA RESULT:      -6.1     46.374     49.204
REMARK  7 active torsions:
REMARK  status: ('A' for Active; 'I' for Inactive)
REMARK    1  A    between atoms: O_1  and  C_16 
REMARK    2  A    between atoms: O_1  and  C_24 
REMARK    3  A    between atoms: O_2  and  C_18 
REMARK    4  A    between atoms: O_2  and  C_26 
REMARK    5  A    between atoms: O_5  and  C_29 
REMARK    6  A    between atoms: N_9  and  C_22 
REMARK    7  A    between atoms: C_26  and  C_29 
ROOT
HETATM    1  O   UNK     0     -11.472 -22.019 -49.965  0.00  0.00    -0.290 OA
HETATM    2  O   UNK     0     -13.417 -26.239 -47.344  0.00  0.00    -0.284 OA
HETATM    3  N   UNK     0     -16.593 -22.103 -48.472  0.00  0.00    -0.254 NA
HETATM    4  C   UNK     0     -13.827 -23.454 -48.594  0.00  0.00     0.014 A 
HETATM    5  C   UNK     0     -14.033 -22.062 -49.218  0.00  0.00     0.060 A 
HETATM    6  C   UNK     0     -15.005 -24.171 -47.908  0.00  0.00     0.060 A 
HETATM    7  C   UNK     0     -12.444 -24.129 -48.655  0.00  0.00     0.043 A 
HETATM    8  C   UNK     0     -15.415 -21.386 -49.157  0.00  0.00     0.063 A 
HETATM    9  C   UNK     0     -16.388 -23.496 -47.847  0.00  0.00     0.063 A 
HETATM   10  C   UNK     0     -12.855 -21.344 -49.904  0.00  0.00     0.200 A 
HETATM   11  C   UNK     0     -12.239 -25.522 -48.030  0.00  0.00     0.121 A 
HETATM   12  C   UNK     0     -14.800 -25.564 -47.284  0.00  0.00     0.200 A 
HETATM   13  C   UNK     0     -11.267 -23.412 -49.340  0.00  0.00     0.082 A 
HETATM   14  C   UNK     0     -15.620 -19.994 -49.782  0.00  0.00     0.052 C 
HETATM   15  C   UNK     0     -17.566 -24.214 -47.162  0.00  0.00     0.052 C 
HETATM   16  C   UNK     0     -10.857 -26.197 -48.091  0.00  0.00     0.127 A 
HETATM   17  C   UNK     0      -9.884 -24.087 -49.401  0.00  0.00     0.058 A 
HETATM   18  C   UNK     0      -9.679 -25.479 -48.777  0.00  0.00     0.059 A 
ENDROOT
BRANCH  12  19
HETATM   19  O   UNK     0     -15.978 -26.282 -46.598  0.00  0.00    -0.308 OA
BRANCH  19  20
HETATM   20  C   UNK     0     -16.089 -27.816 -46.666  0.00  0.00     0.183 C 
BRANCH  20  21
HETATM   21  C   UNK     0     -16.456 -28.618 -45.403  0.00  0.00     0.175 C 
BRANCH  21  22
HETATM   22  O   UNK     0     -15.458 -29.637 -44.821  0.00  0.00    -0.349 OA
HETATM   23  C   UNK     0     -13.946 -29.452 -45.050  0.00  0.00     0.174 C 
ENDBRANCH  21  22
ENDBRANCH  20  21
ENDBRANCH  19  20
ENDBRANCH  12  19
BRANCH  16  24
HETATM   24  N   UNK     0     -10.652 -27.590 -47.466  0.00  0.00    -0.116 N 
HETATM   25  O   UNK     0     -10.881 -27.798 -45.958  0.00  0.00    -0.532 OA
HETATM   26  O   UNK     0     -10.218 -28.774 -48.350  0.00  0.00    -0.532 OA
ENDBRANCH  16  24
BRANCH  10  27
HETATM   27  O   UNK     0     -13.060 -19.952 -50.528  0.00  0.00    -0.313 OA
BRANCH  27  28
HETATM   28  C   UNK     0     -12.052 -18.823 -50.242  0.00  0.00     0.124 C 
HETATM   29  C   UNK     0     -11.942 -18.229 -48.825  0.00  0.00     0.033 C 
HETATM   30  C   UNK     0     -11.153 -18.289 -51.373  0.00  0.00     0.033 C 
ENDBRANCH  27  28
ENDBRANCH  10  27
TORSDOF 7
ENDMDL
MODEL 6
REMARK VINA RESULT:      -6.0     26.521     29.387
REMARK  7 active torsions:
REMARK  status: ('A' for Active; 'I' for Inactive)
REMARK    1  A    between atoms: O_1  and  C_16 
REMARK    2  A    between atoms: O_1  and  C_24 
REMARK    3  A    between atoms: O_2  and  C_18 
REMARK    4  A    between atoms: O_2  and  C_26 
REMARK    5  A    between atoms: O_5  and  C_29 
REMARK    6  A    between atoms: N_9  and  C_22 
REMARK    7  A    between atoms: C_26  and  C_29 
ROOT
HETATM    1  O   UNK     0      25.616  22.838 -16.296  0.00  0.00    -0.290 OA
HETATM    2  O   UNK     0      26.162  21.007 -21.277  0.00  0.00    -0.284 OA
HETATM    3  N   UNK     0      21.309  21.393 -19.094  0.00  0.00    -0.254 NA
HETATM    4  C   UNK     0      24.362  21.746 -18.889  0.00  0.00     0.014 A 
HETATM    5  C   UNK     0      23.463  22.115 -17.695  0.00  0.00     0.060 A 
HETATM    6  C   UNK     0      23.736  21.200 -20.185  0.00  0.00     0.060 A 
HETATM    7  C   UNK     0      25.889  21.923 -18.786  0.00  0.00     0.043 A 
HETATM    8  C   UNK     0      21.936  21.939 -17.798  0.00  0.00     0.063 A 
HETATM    9  C   UNK     0      22.209  21.024 -20.288  0.00  0.00     0.063 A 
HETATM   10  C   UNK     0      24.089  22.662 -16.399  0.00  0.00     0.200 A 
HETATM   11  C   UNK     0      26.788  21.553 -19.980  0.00  0.00     0.121 A 
HETATM   12  C   UNK     0      24.635  20.830 -21.380  0.00  0.00     0.200 A 
HETATM   13  C   UNK     0      26.515  22.468 -17.490  0.00  0.00     0.082 A 
HETATM   14  C   UNK     0      21.036  22.309 -16.604  0.00  0.00     0.052 C 
HETATM   15  C   UNK     0      21.583  20.478 -21.585  0.00  0.00     0.052 C 
HETATM   16  C   UNK     0      28.315  21.729 -19.878  0.00  0.00     0.127 A 
HETATM   17  C   UNK     0      28.042  22.645 -17.388  0.00  0.00     0.058 A 
HETATM   18  C   UNK     0      28.941  22.276 -18.581  0.00  0.00     0.059 A 
ENDROOT
BRANCH  12  19
HETATM   19  O   UNK     0      24.009  20.284 -22.676  0.00  0.00    -0.308 OA
BRANCH  19  20
HETATM   20  C   UNK     0      24.867  20.145 -23.947  0.00  0.00     0.183 C 
BRANCH  20  21
HETATM   21  C   UNK     0      24.858  18.826 -24.742  0.00  0.00     0.175 C 
BRANCH  21  22
HETATM   22  O   UNK     0      25.705  17.632 -24.263  0.00  0.00    -0.349 OA
HETATM   23  C   UNK     0      25.293  16.850 -23.002  0.00  0.00     0.174 C 
ENDBRANCH  21  22
ENDBRANCH  20  21
ENDBRANCH  19  20
ENDBRANCH  12  19
BRANCH  16  24
HETATM   24  N   UNK     0      29.215  21.360 -21.072  0.00  0.00    -0.116 N 
HETATM   25  O   UNK     0      29.379  19.885 -21.485  0.00  0.00    -0.532 OA
HETATM   26  O   UNK     0      29.950  22.465 -21.854  0.00  0.00    -0.532 OA
ENDBRANCH  16  24
BRANCH  10  27
HETATM   27  O   UNK     0      23.190  23.031 -15.205  0.00  0.00    -0.313 OA
BRANCH  27  28
HETATM   28  C   UNK     0      23.232  24.455 -14.621  0.00  0.00     0.124 C 
HETATM   29  C   UNK     0      23.247  25.674 -15.563  0.00  0.00     0.033 C 
HETATM   30  C   UNK     0      23.259  24.661 -13.095  0.00  0.00     0.033 C 
ENDBRANCH  27  28
ENDBRANCH  10  27
TORSDOF 7
ENDMDL
MODEL 7
REMARK VINA RESULT:      -5.8     20.805     23.562
REMARK  7 active torsions:
REMARK  status: ('A' for Active; 'I' for Inactive)
REMARK    1  A    between atoms: O_1  and  C_16 
REMARK    2  A    between atoms: O_1  and  C_24 
REMARK    3  A    between atoms: O_2  and  C_18 
REMARK    4  A    between atoms: O_2  and  C_26 
REMARK    5  A    between atoms: O_5  and  C_29 
REMARK    6  A    between atoms: N_9  and  C_22 
REMARK    7  A    between atoms: C_26  and  C_29 
ROOT
HETATM    1  O   UNK     0      11.822  -8.273 -31.376  0.00  0.00    -0.290 OA
HETATM    2  O   UNK     0      11.303  -3.217 -29.756  0.00  0.00    -0.284 OA
HETATM    3  N   UNK     0      13.648  -4.295 -34.425  0.00  0.00    -0.254 NA
HETATM    4  C   UNK     0      12.258  -5.262 -31.853  0.00  0.00     0.014 A 
HETATM    5  C   UNK     0      12.735  -6.284 -32.901  0.00  0.00     0.060 A 
HETATM    6  C   UNK     0      12.475  -3.756 -32.091  0.00  0.00     0.060 A 
HETATM    7  C   UNK     0      11.562  -5.745 -30.566  0.00  0.00     0.043 A 
HETATM    8  C   UNK     0      13.430  -5.800 -34.187  0.00  0.00     0.063 A 
HETATM    9  C   UNK     0      13.170  -3.272 -33.377  0.00  0.00     0.063 A 
HETATM   10  C   UNK     0      12.517  -7.790 -32.663  0.00  0.00     0.200 A 
HETATM   11  C   UNK     0      11.085  -4.723 -29.518  0.00  0.00     0.121 A 
HETATM   12  C   UNK     0      11.998  -2.733 -31.043  0.00  0.00     0.200 A 
HETATM   13  C   UNK     0      11.344  -7.251 -30.328  0.00  0.00     0.082 A 
HETATM   14  C   UNK     0      13.907  -6.823 -35.235  0.00  0.00     0.052 C 
HETATM   15  C   UNK     0      13.388  -1.766 -33.615  0.00  0.00     0.052 C 
HETATM   16  C   UNK     0      10.390  -5.206 -28.232  0.00  0.00     0.127 A 
HETATM   17  C   UNK     0      10.649  -7.734 -29.042  0.00  0.00     0.058 A 
HETATM   18  C   UNK     0      10.172  -6.712 -27.994  0.00  0.00     0.059 A 
ENDROOT
BRANCH  12  19
HETATM   19  O   UNK     0      12.216  -1.227 -31.281  0.00  0.00    -0.308 OA
BRANCH  19  20
HETATM   20  C   UNK     0      11.008  -0.273 -31.331  0.00  0.00     0.183 C 
BRANCH  20  21
HETATM   21  C   UNK     0      10.413   0.145 -32.688  0.00  0.00     0.175 C 
BRANCH  21  22
HETATM   22  O   UNK     0       9.929   1.591 -32.904  0.00  0.00    -0.349 OA
HETATM   23  C   UNK     0      10.947   2.745 -32.959  0.00  0.00     0.174 C 
ENDBRANCH  21  22
ENDBRANCH  20  21
ENDBRANCH  19  20
ENDBRANCH  12  19
BRANCH  16  24
HETATM   24  N   UNK     0       9.912  -4.184 -27.184  0.00  0.00    -0.116 N 
HETATM   25  O   UNK     0      10.862  -3.734 -26.058  0.00  0.00    -0.532 OA
HETATM   26  O   UNK     0       8.485  -3.610 -27.261  0.00  0.00    -0.532 OA
ENDBRANCH  16  24
BRANCH  10  27
HETATM   27  O   UNK     0      12.994  -8.811 -33.710  0.00  0.00    -0.313 OA
BRANCH  27  28
HETATM   28  C   UNK     0      12.364 -10.216 -33.759  0.00  0.00     0.124 C 
HETATM   29  C   UNK     0      13.023 -11.383 -33.001  0.00  0.00     0.033 C 
HETATM   30  C   UNK     0      11.074 -10.453 -34.567  0.00  0.00     0.033 C 
ENDBRANCH  27  28
ENDBRANCH  10  27
TORSDOF 7
ENDMDL
MODEL 8
REMARK VINA RESULT:      -5.8     37.497     41.744
REMARK  7 active torsions:
REMARK  status: ('A' for Active; 'I' for Inactive)
REMARK    1  A    between atoms: O_1  and  C_16 
REMARK    2  A    between atoms: O_1  and  C_24 
REMARK    3  A    between atoms: O_2  and  C_18 
REMARK    4  A    between atoms: O_2  and  C_26 
REMARK    5  A    between atoms: O_5  and  C_29 
REMARK    6  A    between atoms: N_9  and  C_22 
REMARK    7  A    between atoms: C_26  and  C_29 
ROOT
HETATM    1  O   UNK     0      -8.903 -33.987 -14.351  0.00  0.00    -0.290 OA
HETATM    2  O   UNK     0      -8.107 -34.155  -9.079  0.00  0.00    -0.284 OA
HETATM    3  N   UNK     0     -10.455 -38.256 -11.555  0.00  0.00    -0.254 NA
HETATM    4  C   UNK     0      -9.155 -35.466 -11.662  0.00  0.00     0.014 A 
HETATM    5  C   UNK     0      -9.679 -36.122 -12.952  0.00  0.00     0.060 A 
HETATM    6  C   UNK     0      -9.281 -36.206 -10.317  0.00  0.00     0.060 A 
HETATM    7  C   UNK     0      -8.505 -34.071 -11.715  0.00  0.00     0.043 A 
HETATM    8  C   UNK     0     -10.329 -37.517 -12.899  0.00  0.00     0.063 A 
HETATM    9  C   UNK     0      -9.931 -37.601 -10.263  0.00  0.00     0.063 A 
HETATM   10  C   UNK     0      -9.553 -35.382 -14.298  0.00  0.00     0.200 A 
HETATM   11  C   UNK     0      -7.981 -33.415 -10.424  0.00  0.00     0.121 A 
HETATM   12  C   UNK     0      -8.757 -35.550  -9.025  0.00  0.00     0.200 A 
HETATM   13  C   UNK     0      -8.379 -33.331 -13.060  0.00  0.00     0.082 A 
HETATM   14  C   UNK     0     -10.853 -38.172 -14.190  0.00  0.00     0.052 C 
HETATM   15  C   UNK     0     -10.057 -38.340  -8.918  0.00  0.00     0.052 C 
HETATM   16  C   UNK     0      -7.331 -32.020 -10.477  0.00  0.00     0.127 A 
HETATM   17  C   UNK     0      -7.729 -31.936 -13.113  0.00  0.00     0.058 A 
HETATM   18  C   UNK     0      -7.205 -31.281 -11.823  0.00  0.00     0.059 A 
ENDROOT
BRANCH  12  19
HETATM   19  O   UNK     0      -8.883 -36.290  -7.680  0.00  0.00    -0.308 OA
BRANCH  19  20
HETATM   20  C   UNK     0      -8.452 -35.594  -6.376  0.00  0.00     0.183 C 
BRANCH  20  21
HETATM   21  C   UNK     0      -9.393 -35.592  -5.156  0.00  0.00     0.175 C 
BRANCH  21  22
HETATM   22  O   UNK     0     -10.443 -34.477  -4.996  0.00  0.00    -0.349 OA
HETATM   23  C   UNK     0     -10.000 -33.003  -4.937  0.00  0.00     0.174 C 
ENDBRANCH  21  22
ENDBRANCH  20  21
ENDBRANCH  19  20
ENDBRANCH  12  19
BRANCH  16  24
HETATM   24  N   UNK     0      -6.807 -31.365  -9.186  0.00  0.00    -0.116 N 
HETATM   25  O   UNK     0      -5.326 -30.959  -9.074  0.00  0.00    -0.532 OA
HETATM   26  O   UNK     0      -7.765 -31.114  -8.006  0.00  0.00    -0.532 OA
ENDBRANCH  16  24
BRANCH  10  27
HETATM   27  O   UNK     0     -10.076 -36.038 -15.588  0.00  0.00    -0.313 OA
BRANCH  27  28
HETATM   28  C   UNK     0      -9.225 -36.000 -16.871  0.00  0.00     0.124 C 
HETATM   29  C   UNK     0      -7.813 -36.616 -16.878  0.00  0.00     0.033 C 
HETATM   30  C   UNK     0      -9.785 -35.346 -18.148  0.00  0.00     0.033 C 
ENDBRANCH  27  28
ENDBRANCH  10  27
TORSDOF 7
ENDMDL
MODEL 9
REMARK VINA RESULT:      -5.7      2.106      2.740
REMARK  7 active torsions:
REMARK  status: ('A' for Active; 'I' for Inactive)
REMARK    1  A    between atoms: O_1  and  C_16 
REMARK    2  A    between atoms: O_1  and  C_24 
REMARK    3  A    between atoms: O_2  and  C_18 
REMARK    4  A    between atoms: O_2  and  C_26 
REMARK    5  A    between atoms: O_5  and  C_29 
REMARK    6  A    between atoms: N_9  and  C_22 
REMARK    7  A    between atoms: C_26  and  C_29 
ROOT
HETATM    1  O   UNK     0       5.259   1.440 -11.450  0.00  0.00    -0.290 OA
HETATM    2  O   UNK     0       2.791   6.042 -12.544  0.00  0.00    -0.284 OA
HETATM    3  N   UNK     0       1.450   1.602 -15.181  0.00  0.00    -0.254 NA
HETATM    4  C   UNK     0       3.167   3.028 -13.058  0.00  0.00     0.014 A 
HETATM    5  C   UNK     0       3.354   1.521 -13.315  0.00  0.00     0.060 A 
HETATM    6  C   UNK     0       2.121   3.822 -13.863  0.00  0.00     0.060 A 
HETATM    7  C   UNK     0       4.025   3.741 -11.997  0.00  0.00     0.043 A 
HETATM    8  C   UNK     0       2.496   0.809 -14.377  0.00  0.00     0.063 A 
HETATM    9  C   UNK     0       1.262   3.109 -14.924  0.00  0.00     0.063 A 
HETATM   10  C   UNK     0       4.401   0.727 -12.511  0.00  0.00     0.200 A 
HETATM   11  C   UNK     0       3.837   5.248 -11.740  0.00  0.00     0.121 A 
HETATM   12  C   UNK     0       1.933   5.329 -13.606  0.00  0.00     0.200 A 
HETATM   13  C   UNK     0       5.071   2.947 -11.193  0.00  0.00     0.082 A 
HETATM   14  C   UNK     0       2.684  -0.698 -14.634  0.00  0.00     0.052 C 
HETATM   15  C   UNK     0       0.216   3.903 -15.728  0.00  0.00     0.052 C 
HETATM   16  C   UNK     0       4.696   5.960 -10.678  0.00  0.00     0.127 A 
HETATM   17  C   UNK     0       5.930   3.660 -10.131  0.00  0.00     0.058 A 
HETATM   18  C   UNK     0       5.742   5.166  -9.874  0.00  0.00     0.059 A 
ENDROOT
BRANCH  12  19
HETATM   19  O   UNK     0       0.886   6.123 -14.410  0.00  0.00    -0.308 OA
BRANCH  19  20
HETATM   20  C   UNK     0       1.238   7.514 -14.968  0.00  0.00     0.183 C 
BRANCH  20  21
HETATM   21  C   UNK     0       0.931   8.776 -14.140  0.00  0.00     0.175 C 
BRANCH  21  22
HETATM   22  O   UNK     0       1.947   9.279 -13.097  0.00  0.00    -0.349 OA
HETATM   23  C   UNK     0       1.563   9.325 -11.607  0.00  0.00     0.174 C 
ENDBRANCH  21  22
ENDBRANCH  20  21
ENDBRANCH  19  20
ENDBRANCH  12  19
BRANCH  16  24
HETATM   24  N   UNK     0       4.508   7.467 -10.421  0.00  0.00    -0.116 N 
HETATM   25  O   UNK     0       3.806   7.948  -9.138  0.00  0.00    -0.532 OA
HETATM   26  O   UNK     0       5.022   8.494 -11.448  0.00  0.00    -0.532 OA
ENDBRANCH  16  24
BRANCH  10  27
HETATM   27  O   UNK     0       4.588  -0.779 -12.768  0.00  0.00    -0.313 OA
BRANCH  27  28
HETATM   28  C   UNK     0       4.325  -1.792 -11.638  0.00  0.00     0.124 C 
HETATM   29  C   UNK     0       4.814  -3.246 -11.777  0.00  0.00     0.033 C 
HETATM   30  C   UNK     0       3.573  -1.350 -10.369  0.00  0.00     0.033 C 
ENDBRANCH  27  28
ENDBRANCH  10  27
TORSDOF 7
ENDMDL
MODEL 10
REMARK VINA RESULT:      -5.7     19.833     24.141
REMARK  7 active torsions:
REMARK  status: ('A' for Active; 'I' for Inactive)
REMARK    1  A    between atoms: O_1  and  C_16 
REMARK    2  A    between atoms: O_1  and  C_24 
REMARK    3  A    between atoms: O_2  and  C_18 
REMARK    4  A    between atoms: O_2  and  C_26 
REMARK    5  A    between atoms: O_5  and  C_29 
REMARK    6  A    between atoms: N_9  and  C_22 
REMARK    7  A    between atoms: C_26  and  C_29 
ROOT
HETATM    1  O   UNK     0      -9.054  10.444 -29.161  0.00  0.00    -0.290 OA
HETATM    2  O   UNK     0      -9.078  10.441 -34.496  0.00  0.00    -0.284 OA
HETATM    3  N   UNK     0      -8.763  15.053 -31.832  0.00  0.00    -0.254 NA
HETATM    4  C   UNK     0      -8.965  11.979 -31.829  0.00  0.00     0.014 A 
HETATM    5  C   UNK     0      -8.909  12.748 -30.497  0.00  0.00     0.060 A 
HETATM    6  C   UNK     0      -8.920  12.747 -33.164  0.00  0.00     0.060 A 
HETATM    7  C   UNK     0      -9.066  10.443 -31.828  0.00  0.00     0.043 A 
HETATM    8  C   UNK     0      -8.808  14.285 -30.498  0.00  0.00     0.063 A 
HETATM    9  C   UNK     0      -8.819  14.284 -33.165  0.00  0.00     0.063 A 
HETATM   10  C   UNK     0      -8.953  11.981 -29.162  0.00  0.00     0.200 A 
HETATM   11  C   UNK     0      -9.123   9.674 -33.161  0.00  0.00     0.121 A 
HETATM   12  C   UNK     0      -8.977  11.978 -34.497  0.00  0.00     0.200 A 
HETATM   13  C   UNK     0      -9.111   9.675 -30.494  0.00  0.00     0.082 A 
HETATM   14  C   UNK     0      -8.751  15.054 -29.165  0.00  0.00     0.052 C 
HETATM   15  C   UNK     0      -8.775  15.051 -34.500  0.00  0.00     0.052 C 
HETATM   16  C   UNK     0      -9.224   8.137 -33.160  0.00  0.00     0.127 A 
HETATM   17  C   UNK     0      -9.212   8.138 -30.493  0.00  0.00     0.058 A 
HETATM   18  C   UNK     0      -9.268   7.369 -31.825  0.00  0.00     0.059 A 
ENDROOT
BRANCH  12  19
HETATM   19  O   UNK     0      -8.932  12.745 -35.832  0.00  0.00    -0.308 OA
BRANCH  19  20
HETATM   20  C   UNK     0      -7.818  12.450 -36.852  0.00  0.00     0.183 C 
BRANCH  20  21
HETATM   21  C   UNK     0      -6.456  11.916 -36.372  0.00  0.00     0.175 C 
BRANCH  21  22
HETATM   22  O   UNK     0      -6.241  10.401 -36.194  0.00  0.00    -0.349 OA
HETATM   23  C   UNK     0      -5.807   9.539 -37.394  0.00  0.00     0.174 C 
ENDBRANCH  21  22
ENDBRANCH  20  21
ENDBRANCH  19  20
ENDBRANCH  12  19
BRANCH  16  24
HETATM   24  N   UNK     0      -9.280   7.368 -34.493  0.00  0.00    -0.116 N 
HETATM   25  O   UNK     0     -10.612   6.768 -34.980  0.00  0.00    -0.532 OA
HETATM   26  O   UNK     0      -8.005   7.199 -35.339  0.00  0.00    -0.532 OA
ENDBRANCH  16  24
BRANCH  10  27
HETATM   27  O   UNK     0      -8.897  12.750 -27.830  0.00  0.00    -0.313 OA
BRANCH  27  28
HETATM   28  C   UNK     0      -8.608  11.997 -26.518  0.00  0.00     0.124 C 
HETATM   29  C   UNK     0      -9.679  11.073 -25.907  0.00  0.00     0.033 C 
HETATM   30  C   UNK     0      -7.248  12.167 -25.816  0.00  0.00     0.033 C 
ENDBRANCH  27  28
ENDBRANCH  10  27
TORSDOF 7
ENDMDL
