MODEL 1
REMARK VINA RESULT:      -7.3      0.000      0.000
REMARK  4 active torsions:
REMARK  status: ('A' for Active; 'I' for Inactive)
REMARK    1  A    between atoms: O_1  and  C_15 
REMARK    2  A    between atoms: O_1  and  C_22 
REMARK    3  A    between atoms: O_2  and  C_19 
REMARK    4  A    between atoms: C_21  and  C_22 
ROOT
HETATM    1  O   UNK     0       3.332   5.083  -8.984  0.00  0.00    -0.290 OA
HETATM    2  O   UNK     0       1.600   7.415 -13.458  0.00  0.00     0.000 OA
HETATM    3  O   UNK     0       2.286  10.179 -12.283  0.00  0.00    -0.223 OA
HETATM    4  O   UNK     0       1.339   8.689 -14.283  0.00  0.00     0.000 OA
HETATM    5  N   UNK     0       1.439   2.104 -12.983  0.00  0.00    -0.254 NA
HETATM    6  N   UNK     0       1.943   8.797 -12.871  0.00  0.00     0.000 N 
HETATM    7  C   UNK     0       2.124   4.867 -11.808  0.00  0.00     0.006 A 
HETATM    8  C   UNK     0       2.386   3.593 -10.983  0.00  0.00     0.060 A 
HETATM    9  C   UNK     0       1.519   4.760 -13.221  0.00  0.00     0.038 A 
HETATM   10  C   UNK     0       2.466   6.249 -11.221  0.00  0.00    -0.001 A 
HETATM   11  C   UNK     0       2.043   2.212 -11.571  0.00  0.00     0.063 A 
HETATM   12  C   UNK     0       1.177   3.378 -13.808  0.00  0.00     0.061 A 
HETATM   13  C   UNK     0       2.990   3.701  -9.571  0.00  0.00     0.200 A 
HETATM   14  C   UNK     0       2.205   7.523 -12.046  0.00  0.00     0.061 A 
HETATM   15  C   UNK     0       3.071   6.357  -9.808  0.00  0.00     0.076 A 
HETATM   16  C   UNK     0       2.304   0.938 -10.746  0.00  0.00     0.052 C 
HETATM   17  C   UNK     0       1.258   6.034 -14.046  0.00  0.00     0.117 A 
HETATM   18  C   UNK     0       0.573   3.270 -15.221  0.00  0.00     0.052 C 
HETATM   19  C   UNK     0       2.547   8.905 -11.458  0.00  0.00     0.157 A 
HETATM   20  C   UNK     0       3.413   7.738  -9.220  0.00  0.00     0.054 A 
HETATM   21  C   UNK     0       3.152   9.012 -10.046  0.00  0.00     0.040 A 
ENDROOT
BRANCH  13  22
HETATM   22  O   UNK     0       3.251   2.427  -8.746  0.00  0.00    -0.311 OA
BRANCH  22  23
HETATM   23  C   UNK     0       4.692   2.035  -8.373  0.00  0.00     0.151 C 
BRANCH  23  24
HETATM   24  C   UNK     0       5.868   2.490  -9.258  0.00  0.00     0.030 C 
HETATM   25  C   UNK     0       6.298   1.637 -10.466  0.00  0.00     0.003 C 
HETATM   26  C   UNK     0       6.614   3.798  -8.934  0.00  0.00     0.003 C 
ENDBRANCH  23  24
ENDBRANCH  22  23
ENDBRANCH  13  22
BRANCH  17  27
HETATM   27  O   UNK     0       0.654   5.926 -15.458  0.00  0.00    -0.326 OA
HETATM   28  C   UNK     0       1.472   6.376 -16.682  0.00  0.00     0.181 C 
ENDBRANCH  17  27
TORSDOF 4
ENDMDL
MODEL 2
REMARK VINA RESULT:      -7.0     23.209     25.904
REMARK  4 active torsions:
REMARK  status: ('A' for Active; 'I' for Inactive)
REMARK    1  A    between atoms: O_1  and  C_15 
REMARK    2  A    between atoms: O_1  and  C_22 
REMARK    3  A    between atoms: O_2  and  C_19 
REMARK    4  A    between atoms: C_21  and  C_22 
ROOT
HETATM    1  O   UNK     0      13.497  -7.436 -34.037  0.00  0.00    -0.290 OA
HETATM    2  O   UNK     0      11.607  -2.515 -33.219  0.00  0.00     0.000 OA
HETATM    3  O   UNK     0      12.848  -1.595 -35.884  0.00  0.00    -0.223 OA
HETATM    4  O   UNK     0      11.445  -1.055 -33.681  0.00  0.00     0.000 OA
HETATM    5  N   UNK     0      10.690  -6.355 -29.632  0.00  0.00    -0.254 NA
HETATM    6  N   UNK     0      12.227  -2.055 -34.552  0.00  0.00     0.000 N 
HETATM    7  C   UNK     0      11.932  -5.436 -32.296  0.00  0.00     0.006 A 
HETATM    8  C   UNK     0      12.094  -6.896 -31.835  0.00  0.00     0.060 A 
HETATM    9  C   UNK     0      11.149  -4.435 -31.425  0.00  0.00     0.038 A 
HETATM   10  C   UNK     0      12.552  -4.976 -33.628  0.00  0.00    -0.001 A 
HETATM   11  C   UNK     0      11.473  -7.356 -30.502  0.00  0.00     0.063 A 
HETATM   12  C   UNK     0      10.528  -4.895 -30.093  0.00  0.00     0.061 A 
HETATM   13  C   UNK     0      12.876  -7.896 -32.705  0.00  0.00     0.200 A 
HETATM   14  C   UNK     0      12.390  -3.515 -34.090  0.00  0.00     0.061 A 
HETATM   15  C   UNK     0      13.335  -5.976 -34.499  0.00  0.00     0.076 A 
HETATM   16  C   UNK     0      11.635  -8.815 -30.040  0.00  0.00     0.052 C 
HETATM   17  C   UNK     0      10.986  -2.974 -31.887  0.00  0.00     0.117 A 
HETATM   18  C   UNK     0       9.745  -3.894 -29.223  0.00  0.00     0.052 C 
HETATM   19  C   UNK     0      13.010  -3.055 -35.422  0.00  0.00     0.157 A 
HETATM   20  C   UNK     0      13.956  -5.517 -35.831  0.00  0.00     0.054 A 
HETATM   21  C   UNK     0      13.793  -4.056 -36.293  0.00  0.00     0.040 A 
ENDROOT
BRANCH  13  22
HETATM   22  O   UNK     0      13.039  -9.356 -32.243  0.00  0.00    -0.311 OA
BRANCH  22  23
HETATM   23  C   UNK     0      12.900 -10.504 -33.259  0.00  0.00     0.151 C 
BRANCH  23  24
HETATM   24  C   UNK     0      11.614 -10.639 -34.097  0.00  0.00     0.030 C 
HETATM   25  C   UNK     0      10.428  -9.690 -33.847  0.00  0.00     0.003 C 
HETATM   26  C   UNK     0      11.516 -11.724 -35.186  0.00  0.00     0.003 C 
ENDBRANCH  23  24
ENDBRANCH  22  23
ENDBRANCH  13  22
BRANCH  17  27
HETATM   27  O   UNK     0      10.204  -1.975 -31.017  0.00  0.00    -0.326 OA
HETATM   28  C   UNK     0      10.933  -0.784 -30.366  0.00  0.00     0.181 C 
ENDBRANCH  17  27
TORSDOF 4
ENDMDL
MODEL 3
REMARK VINA RESULT:      -7.0     15.129     16.719
REMARK  4 active torsions:
REMARK  status: ('A' for Active; 'I' for Inactive)
REMARK    1  A    between atoms: O_1  and  C_15 
REMARK    2  A    between atoms: O_1  and  C_22 
REMARK    3  A    between atoms: O_2  and  C_19 
REMARK    4  A    between atoms: C_21  and  C_22 
ROOT
HETATM    1  O   UNK     0     -11.635  -0.240 -19.147  0.00  0.00    -0.290 OA
HETATM    2  O   UNK     0      -8.892   2.765 -22.599  0.00  0.00     0.000 OA
HETATM    3  O   UNK     0     -11.051   4.954 -22.408  0.00  0.00    -0.223 OA
HETATM    4  O   UNK     0      -8.747   4.063 -23.413  0.00  0.00     0.000 OA
HETATM    5  N   UNK     0      -7.026  -2.021 -21.158  0.00  0.00    -0.254 NA
HETATM    6  N   UNK     0      -9.972   3.859 -22.503  0.00  0.00     0.000 N 
HETATM    7  C   UNK     0      -9.185   0.168 -20.968  0.00  0.00     0.006 A 
HETATM    8  C   UNK     0      -9.331  -1.131 -20.152  0.00  0.00     0.060 A 
HETATM    9  C   UNK     0      -7.959   0.372 -21.878  0.00  0.00     0.038 A 
HETATM   10  C   UNK     0     -10.264   1.262 -20.872  0.00  0.00    -0.001 A 
HETATM   11  C   UNK     0      -8.251  -2.225 -20.247  0.00  0.00     0.063 A 
HETATM   12  C   UNK     0      -6.880  -0.723 -21.973  0.00  0.00     0.061 A 
HETATM   13  C   UNK     0     -10.556  -1.334 -19.242  0.00  0.00     0.200 A 
HETATM   14  C   UNK     0     -10.118   2.561 -21.688  0.00  0.00     0.061 A 
HETATM   15  C   UNK     0     -11.489   1.058 -19.962  0.00  0.00     0.076 A 
HETATM   16  C   UNK     0      -8.397  -3.523 -19.432  0.00  0.00     0.052 C 
HETATM   17  C   UNK     0      -7.813   1.670 -22.694  0.00  0.00     0.117 A 
HETATM   18  C   UNK     0      -5.655  -0.519 -22.884  0.00  0.00     0.052 C 
HETATM   19  C   UNK     0     -11.197   3.655 -21.593  0.00  0.00     0.157 A 
HETATM   20  C   UNK     0     -12.568   2.153 -19.867  0.00  0.00     0.054 A 
HETATM   21  C   UNK     0     -12.422   3.451 -20.682  0.00  0.00     0.040 A 
ENDROOT
BRANCH  13  22
HETATM   22  O   UNK     0     -10.702  -2.633 -18.427  0.00  0.00    -0.311 OA
BRANCH  22  23
HETATM   23  C   UNK     0     -12.055  -3.364 -18.380  0.00  0.00     0.151 C 
BRANCH  23  24
HETATM   24  C   UNK     0     -12.454  -4.319 -19.521  0.00  0.00     0.030 C 
HETATM   25  C   UNK     0     -11.428  -4.691 -20.608  0.00  0.00     0.003 C 
HETATM   26  C   UNK     0     -13.878  -4.903 -19.575  0.00  0.00     0.003 C 
ENDBRANCH  23  24
ENDBRANCH  22  23
ENDBRANCH  13  22
BRANCH  17  27
HETATM   27  O   UNK     0      -6.588   1.874 -23.604  0.00  0.00    -0.326 OA
HETATM   28  C   UNK     0      -5.570   2.985 -23.287  0.00  0.00     0.181 C 
ENDBRANCH  17  27
TORSDOF 4
ENDMDL
MODEL 4
REMARK VINA RESULT:      -6.9     10.768     13.988
REMARK  4 active torsions:
REMARK  status: ('A' for Active; 'I' for Inactive)
REMARK    1  A    between atoms: O_1  and  C_15 
REMARK    2  A    between atoms: O_1  and  C_22 
REMARK    3  A    between atoms: O_2  and  C_19 
REMARK    4  A    between atoms: C_21  and  C_22 
ROOT
HETATM    1  O   UNK     0      -2.659  14.935 -17.065  0.00  0.00    -0.290 OA
HETATM    2  O   UNK     0      -6.996  14.117 -20.063  0.00  0.00     0.000 OA
HETATM    3  O   UNK     0      -8.759  14.220 -17.540  0.00  0.00    -0.223 OA
HETATM    4  O   UNK     0      -8.520  13.938 -20.182  0.00  0.00     0.000 OA
HETATM    5  N   UNK     0      -2.181  14.370 -22.348  0.00  0.00    -0.254 NA
HETATM    6  N   UNK     0      -7.877  14.169 -18.802  0.00  0.00     0.000 N 
HETATM    7  C   UNK     0      -3.945  14.474 -19.825  0.00  0.00     0.006 A 
HETATM    8  C   UNK     0      -2.420  14.653 -19.707  0.00  0.00     0.060 A 
HETATM    9  C   UNK     0      -4.589  14.244 -21.206  0.00  0.00     0.038 A 
HETATM   10  C   UNK     0      -4.827  14.526 -18.564  0.00  0.00    -0.001 A 
HETATM   11  C   UNK     0      -1.538  14.601 -20.968  0.00  0.00     0.063 A 
HETATM   12  C   UNK     0      -3.707  14.192 -22.467  0.00  0.00     0.061 A 
HETATM   13  C   UNK     0      -1.777  14.883 -18.327  0.00  0.00     0.200 A 
HETATM   14  C   UNK     0      -6.352  14.347 -18.683  0.00  0.00     0.061 A 
HETATM   15  C   UNK     0      -4.184  14.756 -17.184  0.00  0.00     0.076 A 
HETATM   16  C   UNK     0      -0.014  14.779 -20.850  0.00  0.00     0.052 C 
HETATM   17  C   UNK     0      -6.114  14.065 -21.325  0.00  0.00     0.117 A 
HETATM   18  C   UNK     0      -4.350  13.961 -23.848  0.00  0.00     0.052 C 
HETATM   19  C   UNK     0      -7.234  14.399 -17.421  0.00  0.00     0.157 A 
HETATM   20  C   UNK     0      -5.065  14.808 -15.922  0.00  0.00     0.054 A 
HETATM   21  C   UNK     0      -6.591  14.629 -16.041  0.00  0.00     0.040 A 
ENDROOT
BRANCH  13  22
HETATM   22  O   UNK     0      -0.252  15.061 -18.208  0.00  0.00    -0.311 OA
BRANCH  22  23
HETATM   23  C   UNK     0       0.533  14.284 -17.135  0.00  0.00     0.151 C 
BRANCH  23  24
HETATM   24  C   UNK     0       0.936  12.819 -17.387  0.00  0.00     0.030 C 
HETATM   25  C   UNK     0      -0.134  11.711 -17.365  0.00  0.00     0.003 C 
HETATM   26  C   UNK     0       2.409  12.462 -17.660  0.00  0.00     0.003 C 
ENDBRANCH  23  24
ENDBRANCH  22  23
ENDBRANCH  13  22
BRANCH  17  27
HETATM   27  O   UNK     0      -6.756  13.835 -22.705  0.00  0.00    -0.326 OA
HETATM   28  C   UNK     0      -7.400  12.475 -23.037  0.00  0.00     0.181 C 
ENDBRANCH  17  27
TORSDOF 4
ENDMDL
MODEL 5
REMARK VINA RESULT:      -6.9     39.515     43.319
REMARK  4 active torsions:
REMARK  status: ('A' for Active; 'I' for Inactive)
REMARK    1  A    between atoms: O_1  and  C_15 
REMARK    2  A    between atoms: O_1  and  C_22 
REMARK    3  A    between atoms: O_2  and  C_19 
REMARK    4  A    between atoms: C_21  and  C_22 
ROOT
HETATM    1  O   UNK     0      -9.549 -34.822 -15.240  0.00  0.00    -0.290 OA
HETATM    2  O   UNK     0      -6.413 -38.286 -17.816  0.00  0.00     0.000 OA
HETATM    3  O   UNK     0      -8.082 -37.894 -20.374  0.00  0.00    -0.223 OA
HETATM    4  O   UNK     0      -6.047 -39.054 -19.099  0.00  0.00     0.000 OA
HETATM    5  N   UNK     0      -5.478 -37.141 -12.689  0.00  0.00    -0.254 NA
HETATM    6  N   UNK     0      -7.248 -38.090 -19.095  0.00  0.00     0.000 N 
HETATM    7  C   UNK     0      -7.147 -36.750 -15.248  0.00  0.00     0.006 A 
HETATM    8  C   UNK     0      -7.514 -35.981 -13.965  0.00  0.00     0.060 A 
HETATM    9  C   UNK     0      -5.945 -37.714 -15.253  0.00  0.00     0.038 A 
HETATM   10  C   UNK     0      -7.981 -36.554 -16.528  0.00  0.00    -0.001 A 
HETATM   11  C   UNK     0      -6.679 -36.177 -12.685  0.00  0.00     0.063 A 
HETATM   12  C   UNK     0      -5.111 -37.909 -13.973  0.00  0.00     0.061 A 
HETATM   13  C   UNK     0      -8.714 -35.018 -13.961  0.00  0.00     0.200 A 
HETATM   14  C   UNK     0      -7.614 -37.322 -17.811  0.00  0.00     0.061 A 
HETATM   15  C   UNK     0      -9.183 -35.590 -16.524  0.00  0.00     0.076 A 
HETATM   16  C   UNK     0      -7.046 -35.410 -11.402  0.00  0.00     0.052 C 
HETATM   17  C   UNK     0      -5.579 -38.482 -16.536  0.00  0.00     0.117 A 
HETATM   18  C   UNK     0      -3.910 -38.873 -13.977  0.00  0.00     0.052 C 
HETATM   19  C   UNK     0      -8.449 -37.126 -19.091  0.00  0.00     0.157 A 
HETATM   20  C   UNK     0     -10.017 -35.394 -17.803  0.00  0.00     0.054 A 
HETATM   21  C   UNK     0      -9.650 -36.162 -19.087  0.00  0.00     0.040 A 
ENDROOT
BRANCH  13  22
HETATM   22  O   UNK     0      -9.081 -34.250 -12.677  0.00  0.00    -0.311 OA
BRANCH  22  23
HETATM   23  C   UNK     0      -8.619 -32.793 -12.494  0.00  0.00     0.151 C 
BRANCH  23  24
HETATM   24  C   UNK     0      -8.149 -31.975 -13.711  0.00  0.00     0.030 C 
HETATM   25  C   UNK     0      -6.644 -31.805 -13.991  0.00  0.00     0.003 C 
HETATM   26  C   UNK     0      -9.185 -31.327 -14.649  0.00  0.00     0.003 C 
ENDBRANCH  23  24
ENDBRANCH  22  23
ENDBRANCH  13  22
BRANCH  17  27
HETATM   27  O   UNK     0      -4.378 -39.445 -16.540  0.00  0.00    -0.326 OA
HETATM   28  C   UNK     0      -4.602 -40.954 -16.751  0.00  0.00     0.181 C 
ENDBRANCH  17  27
TORSDOF 4
ENDMDL
MODEL 6
REMARK VINA RESULT:      -6.8     23.350     25.967
REMARK  4 active torsions:
REMARK  status: ('A' for Active; 'I' for Inactive)
REMARK    1  A    between atoms: O_1  and  C_15 
REMARK    2  A    between atoms: O_1  and  C_22 
REMARK    3  A    between atoms: O_2  and  C_19 
REMARK    4  A    between atoms: C_21  and  C_22 
ROOT
HETATM    1  O   UNK     0      12.902  -7.735 -34.597  0.00  0.00    -0.290 OA
HETATM    2  O   UNK     0      10.949  -2.861 -33.653  0.00  0.00     0.000 OA
HETATM    3  O   UNK     0      12.899  -1.679 -35.724  0.00  0.00    -0.223 OA
HETATM    4  O   UNK     0      10.949  -1.347 -33.935  0.00  0.00     0.000 OA
HETATM    5  N   UNK     0       9.000  -7.071 -31.020  0.00  0.00    -0.254 NA
HETATM    6  N   UNK     0      11.924  -2.270 -34.688  0.00  0.00     0.000 N 
HETATM    7  C   UNK     0      10.950  -5.889 -33.090  0.00  0.00     0.006 A 
HETATM    8  C   UNK     0      10.951  -7.404 -32.808  0.00  0.00     0.060 A 
HETATM    9  C   UNK     0       9.975  -4.966 -32.336  0.00  0.00     0.038 A 
HETATM   10  C   UNK     0      11.926  -5.298 -34.125  0.00  0.00    -0.001 A 
HETATM   11  C   UNK     0       9.976  -7.995 -31.773  0.00  0.00     0.063 A 
HETATM   12  C   UNK     0       9.000  -5.557 -31.301  0.00  0.00     0.061 A 
HETATM   13  C   UNK     0      11.926  -8.326 -33.562  0.00  0.00     0.200 A 
HETATM   14  C   UNK     0      11.925  -3.784 -34.407  0.00  0.00     0.061 A 
HETATM   15  C   UNK     0      12.901  -6.222 -34.879  0.00  0.00     0.076 A 
HETATM   16  C   UNK     0       9.976  -9.508 -31.491  0.00  0.00     0.052 C 
HETATM   17  C   UNK     0       9.974  -3.452 -32.618  0.00  0.00     0.117 A 
HETATM   18  C   UNK     0       8.024  -4.634 -30.548  0.00  0.00     0.052 C 
HETATM   19  C   UNK     0      12.900  -3.193 -35.442  0.00  0.00     0.157 A 
HETATM   20  C   UNK     0      13.876  -5.631 -35.914  0.00  0.00     0.054 A 
HETATM   21  C   UNK     0      13.876  -4.117 -36.195  0.00  0.00     0.040 A 
ENDROOT
BRANCH  13  22
HETATM   22  O   UNK     0      11.927  -9.840 -33.280  0.00  0.00    -0.311 OA
BRANCH  22  23
HETATM   23  C   UNK     0      13.227 -10.542 -32.845  0.00  0.00     0.151 C 
BRANCH  23  24
HETATM   24  C   UNK     0      14.164  -9.864 -31.828  0.00  0.00     0.030 C 
HETATM   25  C   UNK     0      15.687  -9.872 -32.060  0.00  0.00     0.003 C 
HETATM   26  C   UNK     0      13.579  -9.179 -30.579  0.00  0.00     0.003 C 
ENDBRANCH  23  24
ENDBRANCH  22  23
ENDBRANCH  13  22
BRANCH  17  27
HETATM   27  O   UNK     0       8.999  -2.529 -31.865  0.00  0.00    -0.326 OA
HETATM   28  C   UNK     0       7.875  -1.806 -32.631  0.00  0.00     0.181 C 
ENDBRANCH  17  27
TORSDOF 4
ENDMDL
MODEL 7
REMARK VINA RESULT:      -6.7     33.880     37.274
REMARK  4 active torsions:
REMARK  status: ('A' for Active; 'I' for Inactive)
REMARK    1  A    between atoms: O_1  and  C_15 
REMARK    2  A    between atoms: O_1  and  C_22 
REMARK    3  A    between atoms: O_2  and  C_19 
REMARK    4  A    between atoms: C_21  and  C_22 
ROOT
HETATM    1  O   UNK     0     -22.790  11.178 -38.628  0.00  0.00    -0.290 OA
HETATM    2  O   UNK     0     -27.036  12.319 -35.607  0.00  0.00     0.000 OA
HETATM    3  O   UNK     0     -28.888  11.800 -38.012  0.00  0.00    -0.223 OA
HETATM    4  O   UNK     0     -28.560  12.475 -35.453  0.00  0.00     0.000 OA
HETATM    5  N   UNK     0     -22.135  12.528 -33.509  0.00  0.00    -0.254 NA
HETATM    6  N   UNK     0     -27.962  12.060 -36.809  0.00  0.00     0.000 N 
HETATM    7  C   UNK     0     -23.987  12.008 -35.915  0.00  0.00     0.006 A 
HETATM    8  C   UNK     0     -22.462  11.852 -36.069  0.00  0.00     0.060 A 
HETATM    9  C   UNK     0     -24.586  12.423 -34.558  0.00  0.00     0.038 A 
HETATM   10  C   UNK     0     -24.913  11.748 -37.118  0.00  0.00    -0.001 A 
HETATM   11  C   UNK     0     -21.536  12.112 -34.866  0.00  0.00     0.063 A 
HETATM   12  C   UNK     0     -23.660  12.683 -33.355  0.00  0.00     0.061 A 
HETATM   13  C   UNK     0     -21.864  11.437 -37.425  0.00  0.00     0.200 A 
HETATM   14  C   UNK     0     -26.437  11.904 -36.964  0.00  0.00     0.061 A 
HETATM   15  C   UNK     0     -24.314  11.333 -38.474  0.00  0.00     0.076 A 
HETATM   16  C   UNK     0     -20.012  11.957 -35.019  0.00  0.00     0.052 C 
HETATM   17  C   UNK     0     -26.110  12.579 -34.404  0.00  0.00     0.117 A 
HETATM   18  C   UNK     0     -24.259  13.099 -31.998  0.00  0.00     0.052 C 
HETATM   19  C   UNK     0     -27.363  11.644 -38.166  0.00  0.00     0.157 A 
HETATM   20  C   UNK     0     -25.240  11.073 -39.677  0.00  0.00     0.054 A 
HETATM   21  C   UNK     0     -26.764  11.229 -39.523  0.00  0.00     0.040 A 
ENDROOT
BRANCH  13  22
HETATM   22  O   UNK     0     -20.339  11.282 -37.579  0.00  0.00    -0.311 OA
BRANCH  22  23
HETATM   23  C   UNK     0     -19.766  10.150 -38.451  0.00  0.00     0.151 C 
BRANCH  23  24
HETATM   24  C   UNK     0     -19.631   8.728 -37.875  0.00  0.00     0.030 C 
HETATM   25  C   UNK     0     -20.020   8.449 -36.411  0.00  0.00     0.003 C 
HETATM   26  C   UNK     0     -19.106   7.584 -38.763  0.00  0.00     0.003 C 
ENDBRANCH  23  24
ENDBRANCH  22  23
ENDBRANCH  13  22
BRANCH  17  27
HETATM   27  O   UNK     0     -26.708  12.994 -33.047  0.00  0.00    -0.326 OA
HETATM   28  C   UNK     0     -27.457  14.333 -32.914  0.00  0.00     0.181 C 
ENDBRANCH  17  27
TORSDOF 4
ENDMDL
MODEL 8
REMARK VINA RESULT:      -6.4     14.247     15.961
REMARK  4 active torsions:
REMARK  status: ('A' for Active; 'I' for Inactive)
REMARK    1  A    between atoms: O_1  and  C_15 
REMARK    2  A    between atoms: O_1  and  C_22 
REMARK    3  A    between atoms: O_2  and  C_19 
REMARK    4  A    between atoms: C_21  and  C_22 
ROOT
HETATM    1  O   UNK     0     -11.667   0.488 -19.095  0.00  0.00    -0.290 OA
HETATM    2  O   UNK     0      -8.784   2.635 -23.038  0.00  0.00     0.000 OA
HETATM    3  O   UNK     0     -10.717   5.031 -23.146  0.00  0.00    -0.223 OA
HETATM    4  O   UNK     0      -8.547   3.770 -24.050  0.00  0.00     0.000 OA
HETATM    5  N   UNK     0      -7.327  -2.033 -20.904  0.00  0.00    -0.254 NA
HETATM    6  N   UNK     0      -9.751   3.833 -23.092  0.00  0.00     0.000 N 
HETATM    7  C   UNK     0      -9.260   0.363 -21.012  0.00  0.00     0.006 A 
HETATM    8  C   UNK     0      -9.497  -0.772 -19.999  0.00  0.00     0.060 A 
HETATM    9  C   UNK     0      -8.056   0.301 -21.971  0.00  0.00     0.038 A 
HETATM   10  C   UNK     0     -10.226   1.561 -21.066  0.00  0.00    -0.001 A 
HETATM   11  C   UNK     0      -8.531  -1.970 -19.945  0.00  0.00     0.063 A 
HETATM   12  C   UNK     0      -7.089  -0.897 -21.917  0.00  0.00     0.061 A 
HETATM   13  C   UNK     0     -10.701  -0.710 -19.041  0.00  0.00     0.200 A 
HETATM   14  C   UNK     0      -9.988   2.697 -22.079  0.00  0.00     0.061 A 
HETATM   15  C   UNK     0     -11.430   1.623 -20.108  0.00  0.00     0.076 A 
HETATM   16  C   UNK     0      -8.768  -3.106 -18.933  0.00  0.00     0.052 C 
HETATM   17  C   UNK     0      -7.818   1.437 -22.984  0.00  0.00     0.117 A 
HETATM   18  C   UNK     0      -5.886  -0.959 -22.875  0.00  0.00     0.052 C 
HETATM   19  C   UNK     0     -10.954   3.895 -22.133  0.00  0.00     0.157 A 
HETATM   20  C   UNK     0     -12.396   2.821 -20.162  0.00  0.00     0.054 A 
HETATM   21  C   UNK     0     -12.158   3.957 -21.175  0.00  0.00     0.040 A 
ENDROOT
BRANCH  13  22
HETATM   22  O   UNK     0     -10.938  -1.846 -18.028  0.00  0.00    -0.311 OA
BRANCH  22  23
HETATM   23  C   UNK     0     -10.770  -1.581 -16.521  0.00  0.00     0.151 C 
BRANCH  23  24
HETATM   24  C   UNK     0     -10.001  -0.336 -16.040  0.00  0.00     0.030 C 
HETATM   25  C   UNK     0      -8.460  -0.330 -16.053  0.00  0.00     0.003 C 
HETATM   26  C   UNK     0     -10.771   0.902 -15.545  0.00  0.00     0.003 C 
ENDBRANCH  23  24
ENDBRANCH  22  23
ENDBRANCH  13  22
BRANCH  17  27
HETATM   27  O   UNK     0      -6.615   1.374 -23.942  0.00  0.00    -0.326 OA
HETATM   28  C   UNK     0      -5.486   2.416 -23.829  0.00  0.00     0.181 C 
ENDBRANCH  17  27
TORSDOF 4
ENDMDL
MODEL 9
REMARK VINA RESULT:      -6.3     27.387     29.728
REMARK  4 active torsions:
REMARK  status: ('A' for Active; 'I' for Inactive)
REMARK    1  A    between atoms: O_1  and  C_15 
REMARK    2  A    between atoms: O_1  and  C_22 
REMARK    3  A    between atoms: O_2  and  C_19 
REMARK    4  A    between atoms: C_21  and  C_22 
ROOT
HETATM    1  O   UNK     0      25.537  21.147 -21.299  0.00  0.00    -0.290 OA
HETATM    2  O   UNK     0      23.322  22.205 -16.562  0.00  0.00     0.000 OA
HETATM    3  O   UNK     0      20.539  21.579 -17.723  0.00  0.00    -0.223 OA
HETATM    4  O   UNK     0      22.073  22.313 -15.668  0.00  0.00     0.000 OA
HETATM    5  N   UNK     0      28.605  22.615 -17.189  0.00  0.00    -0.254 NA
HETATM    6  N   UNK     0      21.931  21.892 -17.142  0.00  0.00     0.000 N 
HETATM    7  C   UNK     0      25.821  21.989 -18.350  0.00  0.00     0.006 A 
HETATM    8  C   UNK     0      27.071  21.881 -19.244  0.00  0.00     0.060 A 
HETATM    9  C   UNK     0      25.964  22.410 -16.875  0.00  0.00     0.038 A 
HETATM   10  C   UNK     0      24.430  21.676 -18.931  0.00  0.00    -0.001 A 
HETATM   11  C   UNK     0      28.463  22.194 -18.664  0.00  0.00     0.063 A 
HETATM   12  C   UNK     0      27.355  22.723 -16.295  0.00  0.00     0.061 A 
HETATM   13  C   UNK     0      26.928  21.460 -20.718  0.00  0.00     0.200 A 
HETATM   14  C   UNK     0      23.180  21.784 -18.036  0.00  0.00     0.061 A 
HETATM   15  C   UNK     0      24.288  21.255 -20.405  0.00  0.00     0.076 A 
HETATM   16  C   UNK     0      29.712  22.086 -19.557  0.00  0.00     0.052 C 
HETATM   17  C   UNK     0      24.714  22.518 -15.981  0.00  0.00     0.117 A 
HETATM   18  C   UNK     0      27.497  23.144 -14.820  0.00  0.00     0.052 C 
HETATM   19  C   UNK     0      21.789  21.471 -18.617  0.00  0.00     0.157 A 
HETATM   20  C   UNK     0      22.896  20.942 -20.986  0.00  0.00     0.054 A 
HETATM   21  C   UNK     0      21.647  21.050 -20.092  0.00  0.00     0.040 A 
ENDROOT
BRANCH  13  22
HETATM   22  O   UNK     0      28.178  21.352 -21.612  0.00  0.00    -0.311 OA
BRANCH  22  23
HETATM   23  C   UNK     0      28.534  20.011 -22.278  0.00  0.00     0.151 C 
BRANCH  23  24
HETATM   24  C   UNK     0      28.108  19.736 -23.733  0.00  0.00     0.030 C 
HETATM   25  C   UNK     0      26.698  19.193 -24.033  0.00  0.00     0.003 C 
HETATM   26  C   UNK     0      29.092  20.004 -24.887  0.00  0.00     0.003 C 
ENDBRANCH  23  24
ENDBRANCH  22  23
ENDBRANCH  13  22
BRANCH  17  27
HETATM   27  O   UNK     0      24.857  22.939 -14.507  0.00  0.00    -0.326 OA
HETATM   28  C   UNK     0      24.226  24.256 -14.018  0.00  0.00     0.181 C 
ENDBRANCH  17  27
TORSDOF 4
ENDMDL
MODEL 10
REMARK VINA RESULT:      -6.3     23.668     26.565
REMARK  4 active torsions:
REMARK  status: ('A' for Active; 'I' for Inactive)
REMARK    1  A    between atoms: O_1  and  C_15 
REMARK    2  A    between atoms: O_1  and  C_22 
REMARK    3  A    between atoms: O_2  and  C_19 
REMARK    4  A    between atoms: C_21  and  C_22 
ROOT
HETATM    1  O   UNK     0      -3.359   9.038  11.869  0.00  0.00    -0.290 OA
HETATM    2  O   UNK     0      -3.253   4.660  14.917  0.00  0.00     0.000 OA
HETATM    3  O   UNK     0      -6.101   3.944  13.987  0.00  0.00    -0.223 OA
HETATM    4  O   UNK     0      -3.938   3.388  15.446  0.00  0.00     0.000 OA
HETATM    5  N   UNK     0       0.965   7.924  14.787  0.00  0.00    -0.254 NA
HETATM    6  N   UNK     0      -4.677   4.302  14.452  0.00  0.00     0.000 N 
HETATM    7  C   UNK     0      -1.882   7.208  13.857  0.00  0.00     0.006 A 
HETATM    8  C   UNK     0      -1.197   8.481  13.327  0.00  0.00     0.060 A 
HETATM    9  C   UNK     0      -1.144   6.292  14.852  0.00  0.00     0.038 A 
HETATM   10  C   UNK     0      -3.306   6.849  13.392  0.00  0.00    -0.001 A 
HETATM   11  C   UNK     0       0.227   8.839  13.792  0.00  0.00     0.063 A 
HETATM   12  C   UNK     0       0.280   6.650  15.316  0.00  0.00     0.061 A 
HETATM   13  C   UNK     0      -1.936   9.396  12.333  0.00  0.00     0.200 A 
HETATM   14  C   UNK     0      -3.992   5.576  13.922  0.00  0.00     0.061 A 
HETATM   15  C   UNK     0      -4.045   7.765  12.398  0.00  0.00     0.076 A 
HETATM   16  C   UNK     0       0.912  10.112  13.263  0.00  0.00     0.052 C 
HETATM   17  C   UNK     0      -1.829   5.019  15.381  0.00  0.00     0.117 A 
HETATM   18  C   UNK     0       1.018   5.735  16.311  0.00  0.00     0.052 C 
HETATM   19  C   UNK     0      -5.415   5.218  13.457  0.00  0.00     0.157 A 
HETATM   20  C   UNK     0      -5.469   7.407  11.933  0.00  0.00     0.054 A 
HETATM   21  C   UNK     0      -6.154   6.133  12.463  0.00  0.00     0.040 A 
ENDROOT
BRANCH  13  22
HETATM   22  O   UNK     0      -1.250  10.670  11.804  0.00  0.00    -0.311 OA
BRANCH  22  23
HETATM   23  C   UNK     0      -0.973  10.825  10.297  0.00  0.00     0.151 C 
BRANCH  23  24
HETATM   24  C   UNK     0      -1.714  11.904   9.485  0.00  0.00     0.030 C 
HETATM   25  C   UNK     0      -1.302  12.189   8.029  0.00  0.00     0.003 C 
HETATM   26  C   UNK     0      -2.865  12.697  10.130  0.00  0.00     0.003 C 
ENDBRANCH  23  24
ENDBRANCH  22  23
ENDBRANCH  13  22
BRANCH  17  27
HETATM   27  O   UNK     0      -1.091   4.104  16.375  0.00  0.00    -0.326 OA
HETATM   28  C   UNK     0      -0.718   2.666  15.968  0.00  0.00     0.181 C 
ENDBRANCH  17  27
TORSDOF 4
ENDMDL
