MODEL 1
REMARK VINA RESULT:      -6.3      0.000      0.000
REMARK  2 active torsions:
REMARK  status: ('A' for Active; 'I' for Inactive)
REMARK    1  A    between atoms: N_6  and  C_14 
REMARK    2  A    between atoms: C_9  and  C_10 
ROOT
HETATM    1  O   UNK     0      21.099  -1.662 -21.452  0.00  0.00    -0.168 OA
HETATM    2  N   UNK     0      19.283  -0.072 -20.465  0.00  0.00    -0.223 NA
HETATM    3  N   UNK     0      17.387  -2.963 -20.321  0.00  0.00    -0.241 NA
HETATM    4  C   UNK     0      16.680  -0.390 -19.556  0.00  0.00     0.014 A 
HETATM    5  C   UNK     0      17.950   0.423 -19.872  0.00  0.00     0.059 A 
HETATM    6  C   UNK     0      16.429  -1.896 -19.756  0.00  0.00     0.071 A 
HETATM    7  C   UNK     0      15.383   0.320 -18.934  0.00  0.00     0.075 A 
HETATM    8  C   UNK     0      18.011   2.000 -19.587  0.00  0.00     0.052 A 
HETATM    9  C   UNK     0      18.831  -2.786 -20.825  0.00  0.00     0.146 A 
HETATM   10  C   UNK     0      15.409   1.895 -18.637  0.00  0.00     0.087 A 
HETATM   11  C   UNK     0      19.675  -1.499 -20.889  0.00  0.00     0.232 A 
HETATM   12  C   UNK     0      16.731   2.741 -18.966  0.00  0.00     0.052 A 
ENDROOT
BRANCH   6  13
HETATM   13  C   UNK     0      15.038  -2.403 -19.335  0.00  0.00    -0.027 A 
HETATM   14  C   UNK     0      13.886  -2.429 -20.358  0.00  0.00     0.024 A 
HETATM   15  C   UNK     0      12.494  -2.937 -19.937  0.00  0.00     0.004 A 
HETATM   16  C   UNK     0      12.254  -3.417 -18.495  0.00  0.00     0.001 A 
HETATM   17  C   UNK     0      13.405  -3.391 -17.472  0.00  0.00     0.004 A 
HETATM   18  C   UNK     0      14.796  -2.884 -17.892  0.00  0.00     0.024 A 
ENDBRANCH   6  13
BRANCH  10  19
HETATM   19  N   UNK     0      14.171   2.592 -18.039  0.00  0.00    -0.122 N 
HETATM   20  O   UNK     0      14.327   3.927 -17.288  0.00  0.00    -0.532 OA
HETATM   21  O   UNK     0      12.779   1.953 -18.195  0.00  0.00    -0.532 OA
ENDBRANCH  10  19
TORSDOF 2
ENDMDL
MODEL 2
REMARK VINA RESULT:      -6.3     13.397     15.376
REMARK  2 active torsions:
REMARK  status: ('A' for Active; 'I' for Inactive)
REMARK    1  A    between atoms: N_6  and  C_14 
REMARK    2  A    between atoms: C_9  and  C_10 
ROOT
HETATM    1  O   UNK     0      10.633  -3.113 -27.773  0.00  0.00    -0.168 OA
HETATM    2  N   UNK     0      11.688  -3.148 -30.157  0.00  0.00    -0.223 NA
HETATM    3  N   UNK     0      11.060  -6.545 -29.961  0.00  0.00    -0.241 NA
HETATM    4  C   UNK     0      12.213  -5.116 -32.042  0.00  0.00     0.014 A 
HETATM    5  C   UNK     0      12.206  -3.670 -31.510  0.00  0.00     0.059 A 
HETATM    6  C   UNK     0      11.703  -6.395 -31.353  0.00  0.00     0.071 A 
HETATM    7  C   UNK     0      12.804  -5.456 -33.494  0.00  0.00     0.075 A 
HETATM    8  C   UNK     0      12.791  -2.465 -32.393  0.00  0.00     0.052 A 
HETATM    9  C   UNK     0      10.769  -5.453 -28.915  0.00  0.00     0.146 A 
HETATM   10  C   UNK     0      13.396  -4.275 -34.403  0.00  0.00     0.087 A 
HETATM   11  C   UNK     0      11.048  -3.941 -29.002  0.00  0.00     0.232 A 
HETATM   12  C   UNK     0      13.390  -2.770 -33.849  0.00  0.00     0.052 A 
ENDROOT
BRANCH   6  13
HETATM   13  C   UNK     0      11.855  -7.696 -32.162  0.00  0.00    -0.027 A 
HETATM   14  C   UNK     0      10.712  -8.172 -33.078  0.00  0.00     0.024 A 
HETATM   15  C   UNK     0      10.865  -9.474 -33.887  0.00  0.00     0.004 A 
HETATM   16  C   UNK     0      12.160 -10.298 -33.780  0.00  0.00     0.001 A 
HETATM   17  C   UNK     0      13.304  -9.823 -32.865  0.00  0.00     0.004 A 
HETATM   18  C   UNK     0      13.151  -8.522 -32.056  0.00  0.00     0.024 A 
ENDBRANCH   6  13
BRANCH  10  19
HETATM   19  N   UNK     0      13.968  -4.585 -35.800  0.00  0.00    -0.122 N 
HETATM   20  O   UNK     0      13.674  -5.940 -36.469  0.00  0.00    -0.532 OA
HETATM   21  O   UNK     0      14.834  -3.539 -36.526  0.00  0.00    -0.532 OA
ENDBRANCH  10  19
TORSDOF 2
ENDMDL
MODEL 3
REMARK VINA RESULT:      -6.2     22.153     25.635
REMARK  2 active torsions:
REMARK  status: ('A' for Active; 'I' for Inactive)
REMARK    1  A    between atoms: N_6  and  C_14 
REMARK    2  A    between atoms: C_9  and  C_10 
ROOT
HETATM    1  O   UNK     0     -13.694  -4.879 -19.102  0.00  0.00    -0.168 OA
HETATM    2  N   UNK     0     -12.084  -3.188 -17.941  0.00  0.00    -0.223 NA
HETATM    3  N   UNK     0     -10.163  -3.667 -20.779  0.00  0.00    -0.241 NA
HETATM    4  C   UNK     0      -9.639  -2.045 -18.588  0.00  0.00     0.014 A 
HETATM    5  C   UNK     0     -10.867  -2.279 -17.687  0.00  0.00     0.059 A 
HETATM    6  C   UNK     0      -9.326  -2.663 -19.963  0.00  0.00     0.071 A 
HETATM    7  C   UNK     0      -8.466  -1.047 -18.138  0.00  0.00     0.075 A 
HETATM    8  C   UNK     0     -11.006  -1.531 -16.275  0.00  0.00     0.052 A 
HETATM    9  C   UNK     0     -11.519  -4.301 -20.419  0.00  0.00     0.146 A 
HETATM   10  C   UNK     0      -8.573  -0.283 -16.733  0.00  0.00     0.087 A 
HETATM   11  C   UNK     0     -12.374  -4.088 -19.156  0.00  0.00     0.232 A 
HETATM   12  C   UNK     0      -9.852  -0.527 -15.795  0.00  0.00     0.052 A 
ENDROOT
BRANCH   6  13
HETATM   13  C   UNK     0      -8.001  -2.218 -20.609  0.00  0.00    -0.027 A 
HETATM   14  C   UNK     0      -6.680  -2.901 -20.206  0.00  0.00     0.024 A 
HETATM   15  C   UNK     0      -5.355  -2.455 -20.853  0.00  0.00     0.004 A 
HETATM   16  C   UNK     0      -5.351  -1.328 -21.902  0.00  0.00     0.001 A 
HETATM   17  C   UNK     0      -6.670  -0.646 -22.304  0.00  0.00     0.004 A 
HETATM   18  C   UNK     0      -7.995  -1.090 -21.658  0.00  0.00     0.024 A 
ENDBRANCH   6  13
BRANCH  10  19
HETATM   19  N   UNK     0      -7.456   0.678 -16.286  0.00  0.00    -0.122 N 
HETATM   20  O   UNK     0      -5.985   0.224 -16.333  0.00  0.00    -0.532 OA
HETATM   21  O   UNK     0      -7.810   2.093 -15.792  0.00  0.00    -0.532 OA
ENDBRANCH  10  19
TORSDOF 2
ENDMDL
MODEL 4
REMARK VINA RESULT:      -6.1     15.655     17.121
REMARK  2 active torsions:
REMARK  status: ('A' for Active; 'I' for Inactive)
REMARK    1  A    between atoms: N_6  and  C_14 
REMARK    2  A    between atoms: C_9  and  C_10 
ROOT
HETATM    1  O   UNK     0      -0.464   2.410 -16.456  0.00  0.00    -0.168 OA
HETATM    2  N   UNK     0       0.273   4.563 -15.183  0.00  0.00    -0.223 NA
HETATM    3  N   UNK     0       1.746   2.306 -13.013  0.00  0.00    -0.241 NA
HETATM    4  C   UNK     0       1.730   5.078 -12.878  0.00  0.00     0.014 A 
HETATM    5  C   UNK     0       0.918   5.478 -14.124  0.00  0.00     0.059 A 
HETATM    6  C   UNK     0       2.099   3.668 -12.384  0.00  0.00     0.071 A 
HETATM    7  C   UNK     0       2.323   6.195 -11.890  0.00  0.00     0.075 A 
HETATM    8  C   UNK     0       0.641   7.020 -14.468  0.00  0.00     0.052 A 
HETATM    9  C   UNK     0       0.937   2.021 -14.291  0.00  0.00     0.146 A 
HETATM   10  C   UNK     0       2.065   7.746 -12.203  0.00  0.00     0.087 A 
HETATM   11  C   UNK     0       0.281   3.025 -15.257  0.00  0.00     0.232 A 
HETATM   12  C   UNK     0       1.219   8.161 -13.501  0.00  0.00     0.052 A 
ENDROOT
BRANCH   6  13
HETATM   13  C   UNK     0       2.930   3.609 -11.089  0.00  0.00    -0.027 A 
HETATM   14  C   UNK     0       2.224   3.505  -9.724  0.00  0.00     0.024 A 
HETATM   15  C   UNK     0       3.056   3.447  -8.429  0.00  0.00     0.004 A 
HETATM   16  C   UNK     0       4.593   3.493  -8.499  0.00  0.00     0.001 A 
HETATM   17  C   UNK     0       5.300   3.597  -9.863  0.00  0.00     0.004 A 
HETATM   18  C   UNK     0       4.468   3.655 -11.158  0.00  0.00     0.024 A 
ENDBRANCH   6  13
BRANCH  10  19
HETATM   19  N   UNK     0       2.627   8.830 -11.264  0.00  0.00    -0.122 N 
HETATM   20  O   UNK     0       4.125   9.185 -11.307  0.00  0.00    -0.532 OA
HETATM   21  O   UNK     0       1.691   9.558 -10.282  0.00  0.00    -0.532 OA
ENDBRANCH  10  19
TORSDOF 2
ENDMDL
MODEL 5
REMARK VINA RESULT:      -6.1     35.996     39.077
REMARK  2 active torsions:
REMARK  status: ('A' for Active; 'I' for Inactive)
REMARK    1  A    between atoms: N_6  and  C_14 
REMARK    2  A    between atoms: C_9  and  C_10 
ROOT
HETATM    1  O   UNK     0      -9.219 -32.931 -14.483  0.00  0.00    -0.168 OA
HETATM    2  N   UNK     0      -8.528 -32.565 -11.996  0.00  0.00    -0.223 NA
HETATM    3  N   UNK     0      -5.513 -31.588 -13.384  0.00  0.00    -0.241 NA
HETATM    4  C   UNK     0      -6.228 -31.701 -10.705  0.00  0.00     0.014 A 
HETATM    5  C   UNK     0      -7.682 -32.208 -10.759  0.00  0.00     0.059 A 
HETATM    6  C   UNK     0      -5.263 -31.425 -11.872  0.00  0.00     0.071 A 
HETATM    7  C   UNK     0      -5.520 -31.383  -9.301  0.00  0.00     0.075 A 
HETATM    8  C   UNK     0      -8.526 -32.433  -9.414  0.00  0.00     0.052 A 
HETATM    9  C   UNK     0      -6.789 -32.068 -14.100  0.00  0.00     0.146 A 
HETATM   10  C   UNK     0      -6.335 -31.597  -7.937  0.00  0.00     0.087 A 
HETATM   11  C   UNK     0      -8.131 -32.502 -13.482  0.00  0.00     0.232 A 
HETATM   12  C   UNK     0      -7.848 -32.125  -7.994  0.00  0.00     0.052 A 
ENDROOT
BRANCH   6  13
HETATM   13  C   UNK     0      -3.864 -30.919 -11.477  0.00  0.00    -0.027 A 
HETATM   14  C   UNK     0      -2.673 -31.896 -11.441  0.00  0.00     0.024 A 
HETATM   15  C   UNK     0      -1.273 -31.389 -11.046  0.00  0.00     0.004 A 
HETATM   16  C   UNK     0      -1.064 -29.907 -10.686  0.00  0.00     0.001 A 
HETATM   17  C   UNK     0      -2.254 -28.931 -10.722  0.00  0.00     0.004 A 
HETATM   18  C   UNK     0      -3.654 -29.437 -11.117  0.00  0.00     0.024 A 
ENDBRANCH   6  13
BRANCH  10  19
HETATM   19  N   UNK     0      -5.669 -31.297  -6.580  0.00  0.00    -0.122 N 
HETATM   20  O   UNK     0      -5.760 -32.322  -5.435  0.00  0.00    -0.532 OA
HETATM   21  O   UNK     0      -4.913 -29.972  -6.371  0.00  0.00    -0.532 OA
ENDBRANCH  10  19
TORSDOF 2
ENDMDL
MODEL 6
REMARK VINA RESULT:      -6.0     15.105     16.505
REMARK  2 active torsions:
REMARK  status: ('A' for Active; 'I' for Inactive)
REMARK    1  A    between atoms: N_6  and  C_14 
REMARK    2  A    between atoms: C_9  and  C_10 
ROOT
HETATM    1  O   UNK     0       0.476   0.848 -14.729  0.00  0.00    -0.168 OA
HETATM    2  N   UNK     0       1.180   3.108 -13.636  0.00  0.00    -0.223 NA
HETATM    3  N   UNK     0       3.024   1.071 -11.534  0.00  0.00    -0.241 NA
HETATM    4  C   UNK     0       2.821   3.839 -11.521  0.00  0.00     0.014 A 
HETATM    5  C   UNK     0       1.860   4.118 -12.692  0.00  0.00     0.059 A 
HETATM    6  C   UNK     0       3.339   2.483 -11.006  0.00  0.00     0.071 A 
HETATM    7  C   UNK     0       3.428   5.042 -10.650  0.00  0.00     0.075 A 
HETATM    8  C   UNK     0       1.439   5.618 -13.073  0.00  0.00     0.052 A 
HETATM    9  C   UNK     0       2.113   0.666 -12.708  0.00  0.00     0.146 A 
HETATM   10  C   UNK     0       3.028   6.554 -11.003  0.00  0.00     0.087 A 
HETATM   11  C   UNK     0       1.292   1.573 -13.644  0.00  0.00     0.232 A 
HETATM   12  C   UNK     0       2.027   6.844 -12.222  0.00  0.00     0.052 A 
ENDROOT
BRANCH   6  13
HETATM   13  C   UNK     0       4.299   2.548  -9.804  0.00  0.00    -0.027 A 
HETATM   14  C   UNK     0       3.745   2.453  -8.370  0.00  0.00     0.024 A 
HETATM   15  C   UNK     0       4.706   2.517  -7.168  0.00  0.00     0.004 A 
HETATM   16  C   UNK     0       6.220   2.677  -7.400  0.00  0.00     0.001 A 
HETATM   17  C   UNK     0       6.774   2.773  -8.833  0.00  0.00     0.004 A 
HETATM   18  C   UNK     0       5.814   2.708 -10.035  0.00  0.00     0.024 A 
ENDBRANCH   6  13
BRANCH  10  19
HETATM   19  N   UNK     0       3.602   7.720 -10.177  0.00  0.00    -0.122 N 
HETATM   20  O   UNK     0       3.636   7.631  -8.640  0.00  0.00    -0.532 OA
HETATM   21  O   UNK     0       4.141   8.975 -10.888  0.00  0.00    -0.532 OA
ENDBRANCH  10  19
TORSDOF 2
ENDMDL
MODEL 7
REMARK VINA RESULT:      -6.0     21.940     25.364
REMARK  2 active torsions:
REMARK  status: ('A' for Active; 'I' for Inactive)
REMARK    1  A    between atoms: N_6  and  C_14 
REMARK    2  A    between atoms: C_9  and  C_10 
ROOT
HETATM    1  O   UNK     0     -12.126  -4.638 -20.204  0.00  0.00    -0.168 OA
HETATM    2  N   UNK     0     -11.741  -2.129 -19.605  0.00  0.00    -0.223 NA
HETATM    3  N   UNK     0      -8.398  -3.007 -19.767  0.00  0.00    -0.241 NA
HETATM    4  C   UNK     0      -9.510  -0.530 -19.197  0.00  0.00     0.014 A 
HETATM    5  C   UNK     0     -11.023  -0.805 -19.283  0.00  0.00     0.059 A 
HETATM    6  C   UNK     0      -8.342  -1.509 -19.412  0.00  0.00     0.071 A 
HETATM    7  C   UNK     0      -8.959   0.935 -18.843  0.00  0.00     0.075 A 
HETATM    8  C   UNK     0     -12.089   0.365 -19.021  0.00  0.00     0.052 A 
HETATM    9  C   UNK     0      -9.636  -3.895 -19.994  0.00  0.00     0.146 A 
HETATM   10  C   UNK     0      -9.997   2.127 -18.575  0.00  0.00     0.087 A 
HETATM   11  C   UNK     0     -11.123  -3.504 -19.922  0.00  0.00     0.232 A 
HETATM   12  C   UNK     0     -11.572   1.840 -18.665  0.00  0.00     0.052 A 
ENDROOT
BRANCH   6  13
HETATM   13  C   UNK     0      -6.931  -0.913 -19.252  0.00  0.00    -0.027 A 
HETATM   14  C   UNK     0      -6.236  -0.938 -17.878  0.00  0.00     0.024 A 
HETATM   15  C   UNK     0      -4.825  -0.341 -17.718  0.00  0.00     0.004 A 
HETATM   16  C   UNK     0      -4.110   0.280 -18.932  0.00  0.00     0.001 A 
HETATM   17  C   UNK     0      -4.805   0.305 -20.306  0.00  0.00     0.004 A 
HETATM   18  C   UNK     0      -6.215  -0.291 -20.466  0.00  0.00     0.024 A 
ENDBRANCH   6  13
BRANCH  10  19
HETATM   19  N   UNK     0      -9.484   3.540 -18.234  0.00  0.00    -0.122 N 
HETATM   20  O   UNK     0      -8.690   3.778 -16.937  0.00  0.00    -0.532 OA
HETATM   21  O   UNK     0      -9.766   4.712 -19.192  0.00  0.00    -0.532 OA
ENDBRANCH  10  19
TORSDOF 2
ENDMDL
MODEL 8
REMARK VINA RESULT:      -5.9      3.207      5.041
REMARK  2 active torsions:
REMARK  status: ('A' for Active; 'I' for Inactive)
REMARK    1  A    between atoms: N_6  and  C_14 
REMARK    2  A    between atoms: C_9  and  C_10 
ROOT
HETATM    1  O   UNK     0      16.270  -3.943 -20.792  0.00  0.00    -0.168 OA
HETATM    2  N   UNK     0      17.373  -1.584 -20.649  0.00  0.00    -0.223 NA
HETATM    3  N   UNK     0      14.099  -0.498 -20.388  0.00  0.00    -0.241 NA
HETATM    4  C   UNK     0      16.428   1.011 -20.380  0.00  0.00     0.014 A 
HETATM    5  C   UNK     0      17.528  -0.057 -20.527  0.00  0.00     0.059 A 
HETATM    6  C   UNK     0      14.902   0.815 -20.318  0.00  0.00     0.071 A 
HETATM    7  C   UNK     0      16.801   2.567 -20.267  0.00  0.00     0.075 A 
HETATM    8  C   UNK     0      19.077   0.358 -20.572  0.00  0.00     0.052 A 
HETATM    9  C   UNK     0      14.623  -1.938 -20.537  0.00  0.00     0.146 A 
HETATM   10  C   UNK     0      18.340   3.017 -20.308  0.00  0.00     0.087 A 
HETATM   11  C   UNK     0      16.081  -2.421 -20.653  0.00  0.00     0.232 A 
HETATM   12  C   UNK     0      19.485   1.905 -20.461  0.00  0.00     0.052 A 
ENDROOT
BRANCH   6  13
HETATM   13  C   UNK     0      14.069   2.101 -20.166  0.00  0.00    -0.027 A 
HETATM   14  C   UNK     0      13.688   2.611 -18.763  0.00  0.00     0.024 A 
HETATM   15  C   UNK     0      12.855   3.897 -18.611  0.00  0.00     0.004 A 
HETATM   16  C   UNK     0      12.402   4.673 -19.862  0.00  0.00     0.001 A 
HETATM   17  C   UNK     0      12.782   4.164 -21.264  0.00  0.00     0.004 A 
HETATM   18  C   UNK     0      13.616   2.878 -21.416  0.00  0.00     0.024 A 
ENDBRANCH   6  13
BRANCH  10  19
HETATM   19  N   UNK     0      18.715   4.507 -20.201  0.00  0.00    -0.122 N 
HETATM   20  O   UNK     0      18.508   5.260 -18.874  0.00  0.00    -0.532 OA
HETATM   21  O   UNK     0      19.297   5.244 -21.422  0.00  0.00    -0.532 OA
ENDBRANCH  10  19
TORSDOF 2
ENDMDL
MODEL 9
REMARK VINA RESULT:      -5.9     40.514     43.746
REMARK  2 active torsions:
REMARK  status: ('A' for Active; 'I' for Inactive)
REMARK    1  A    between atoms: N_6  and  C_14 
REMARK    2  A    between atoms: C_9  and  C_10 
ROOT
HETATM    1  O   UNK     0     -21.070 -24.676  -2.185  0.00  0.00    -0.168 OA
HETATM    2  N   UNK     0     -21.508 -22.121  -2.464  0.00  0.00    -0.223 NA
HETATM    3  N   UNK     0     -18.076 -21.887  -2.095  0.00  0.00    -0.241 NA
HETATM    4  C   UNK     0     -19.917 -19.848  -2.488  0.00  0.00     0.014 A 
HETATM    5  C   UNK     0     -21.255 -20.605  -2.572  0.00  0.00     0.059 A 
HETATM    6  C   UNK     0     -18.502 -20.418  -2.276  0.00  0.00     0.071 A 
HETATM    7  C   UNK     0     -19.866 -18.250  -2.625  0.00  0.00     0.075 A 
HETATM    8  C   UNK     0     -22.634 -19.818  -2.799  0.00  0.00     0.052 A 
HETATM    9  C   UNK     0     -18.959 -23.148  -2.082  0.00  0.00     0.146 A 
HETATM   10  C   UNK     0     -21.226 -17.432  -2.853  0.00  0.00     0.087 A 
HETATM   11  C   UNK     0     -20.487 -23.253  -2.247  0.00  0.00     0.232 A 
HETATM   12  C   UNK     0     -22.619 -18.221  -2.941  0.00  0.00     0.052 A 
ENDROOT
BRANCH   6  13
HETATM   13  C   UNK     0     -17.363 -19.382  -2.239  0.00  0.00    -0.027 A 
HETATM   14  C   UNK     0     -16.922 -18.769  -0.897  0.00  0.00     0.024 A 
HETATM   15  C   UNK     0     -15.782 -17.733  -0.861  0.00  0.00     0.004 A 
HETATM   16  C   UNK     0     -15.085 -17.311  -2.167  0.00  0.00     0.001 A 
HETATM   17  C   UNK     0     -15.525 -17.924  -3.509  0.00  0.00     0.004 A 
HETATM   18  C   UNK     0     -16.665 -18.959  -3.545  0.00  0.00     0.024 A 
ENDBRANCH   6  13
BRANCH  10  19
HETATM   19  N   UNK     0     -21.194 -15.897  -2.987  0.00  0.00    -0.122 N 
HETATM   20  O   UNK     0     -20.239 -15.067  -2.110  0.00  0.00    -0.532 OA
HETATM   21  O   UNK     0     -22.117 -15.194  -3.999  0.00  0.00    -0.532 OA
ENDBRANCH  10  19
TORSDOF 2
ENDMDL
MODEL 10
REMARK VINA RESULT:      -5.9     32.667     34.871
REMARK  2 active torsions:
REMARK  status: ('A' for Active; 'I' for Inactive)
REMARK    1  A    between atoms: N_6  and  C_14 
REMARK    2  A    between atoms: C_9  and  C_10 
ROOT
HETATM    1  O   UNK     0      27.861 -24.451  -1.148  0.00  0.00    -0.168 OA
HETATM    2  N   UNK     0      27.842 -27.056  -1.264  0.00  0.00    -0.223 NA
HETATM    3  N   UNK     0      26.583 -26.516  -4.442  0.00  0.00    -0.241 NA
HETATM    4  C   UNK     0      27.107 -28.929  -3.175  0.00  0.00     0.014 A 
HETATM    5  C   UNK     0      27.644 -28.486  -1.801  0.00  0.00     0.059 A 
HETATM    6  C   UNK     0      26.635 -28.053  -4.350  0.00  0.00     0.071 A 
HETATM    7  C   UNK     0      26.977 -30.485  -3.544  0.00  0.00     0.075 A 
HETATM    8  C   UNK     0      28.089 -29.567  -0.703  0.00  0.00     0.052 A 
HETATM    9  C   UNK     0      26.990 -25.477  -3.382  0.00  0.00     0.146 A 
HETATM   10  C   UNK     0      27.412 -31.593  -2.470  0.00  0.00     0.087 A 
HETATM   11  C   UNK     0      27.551 -25.717  -1.967  0.00  0.00     0.232 A 
HETATM   12  C   UNK     0      27.972 -31.130  -1.039  0.00  0.00     0.052 A 
ENDROOT
BRANCH   6  13
HETATM   13  C   UNK     0      26.150 -28.814  -5.598  0.00  0.00    -0.027 A 
HETATM   14  C   UNK     0      27.164 -29.269  -6.664  0.00  0.00     0.024 A 
HETATM   15  C   UNK     0      26.679 -30.030  -7.913  0.00  0.00     0.004 A 
HETATM   16  C   UNK     0      25.181 -30.335  -8.094  0.00  0.00     0.001 A 
HETATM   17  C   UNK     0      24.167 -29.881  -7.028  0.00  0.00     0.004 A 
HETATM   18  C   UNK     0      24.652 -29.120  -5.780  0.00  0.00     0.024 A 
ENDBRANCH   6  13
BRANCH  10  19
HETATM   19  N   UNK     0      27.294 -33.091  -2.809  0.00  0.00    -0.122 N 
HETATM   20  O   UNK     0      26.739 -33.529  -4.176  0.00  0.00    -0.532 OA
HETATM   21  O   UNK     0      27.731 -34.149  -1.779  0.00  0.00    -0.532 OA
ENDBRANCH  10  19
TORSDOF 2
ENDMDL
