MODEL 1
REMARK VINA RESULT:      -7.1      0.000      0.000
REMARK  1 active torsions:
REMARK  status: ('A' for Active; 'I' for Inactive)
REMARK    1  A    between atoms: C_3  and  C_9 
ROOT
HETATM    1  C   UNK     0     -10.065   1.659 -19.182  0.00  0.00     0.013 A 
HETATM    2  N   UNK     0     -11.443   1.557 -21.292  0.00  0.00    -0.241 NA
HETATM    3  C   UNK     0     -10.688   0.977 -20.096  0.00  0.00     0.071 A 
HETATM    4  N   UNK     0     -10.201   4.308 -19.558  0.00  0.00    -0.223 NA
HETATM    5  C   UNK     0      -9.829   3.178 -18.915  0.00  0.00     0.059 A 
HETATM    6  C   UNK     0     -11.033   4.377 -20.841  0.00  0.00     0.232 A 
HETATM    7  C   UNK     0      -9.468   0.635 -18.200  0.00  0.00     0.062 A 
HETATM    8  C   UNK     0     -11.605   3.088 -21.638  0.00  0.00     0.146 A 
HETATM    9  C   UNK     0      -9.013   3.635 -17.691  0.00  0.00     0.051 A 
HETATM   10  O   UNK     0     -11.342   5.769 -21.404  0.00  0.00    -0.168 OA
HETATM   11  C   UNK     0      -8.657   1.095 -16.984  0.00  0.00     0.018 A 
HETATM   12  C   UNK     0      -8.430   2.595 -16.729  0.00  0.00     0.040 A 
HETATM   13 Cl   UNK     0      -8.063   0.049 -16.004  0.00  0.00    -0.091 Cl
ENDROOT
BRANCH   3  14
HETATM   14  C   UNK     0     -10.663  -0.551 -19.961  0.00  0.00    -0.027 A 
HETATM   15  C   UNK     0     -11.648  -1.257 -19.020  0.00  0.00     0.024 A 
HETATM   16  C   UNK     0     -11.631  -2.781 -18.878  0.00  0.00     0.004 A 
HETATM   17  C   UNK     0     -10.613  -3.606 -19.692  0.00  0.00     0.001 A 
HETATM   18  C   UNK     0      -9.614  -2.918 -20.644  0.00  0.00     0.004 A 
HETATM   19  C   UNK     0      -9.646  -1.375 -20.775  0.00  0.00     0.024 A 
ENDBRANCH   3  14
TORSDOF 1
ENDMDL
MODEL 2
REMARK VINA RESULT:      -7.0     27.665     29.159
REMARK  1 active torsions:
REMARK  status: ('A' for Active; 'I' for Inactive)
REMARK    1  A    between atoms: C_3  and  C_9 
ROOT
HETATM    1  C   UNK     0      18.197  -0.345 -19.610  0.00  0.00     0.013 A 
HETATM    2  N   UNK     0      20.226  -0.550 -21.092  0.00  0.00    -0.241 NA
HETATM    3  C   UNK     0      19.075   0.185 -20.406  0.00  0.00     0.071 A 
HETATM    4  N   UNK     0      18.561  -2.972 -19.228  0.00  0.00    -0.223 NA
HETATM    5  C   UNK     0      17.941  -1.782 -19.058  0.00  0.00     0.059 A 
HETATM    6  C   UNK     0      19.795  -3.224 -20.098  0.00  0.00     0.232 A 
HETATM    7  C   UNK     0      17.251   0.791 -19.179  0.00  0.00     0.062 A 
HETATM    8  C   UNK     0      20.561  -2.086 -20.961  0.00  0.00     0.146 A 
HETATM    9  C   UNK     0      16.763  -2.050 -18.101  0.00  0.00     0.051 A 
HETATM   10  O   UNK     0      20.338  -4.656 -20.149  0.00  0.00    -0.168 OA
HETATM   11  C   UNK     0      16.081   0.519 -18.228  0.00  0.00     0.018 A 
HETATM   12  C   UNK     0      15.837  -0.901 -17.689  0.00  0.00     0.040 A 
HETATM   13 Cl   UNK     0      15.137   1.675 -17.804  0.00  0.00    -0.091 Cl
ENDROOT
BRANCH   3  14
HETATM   14  C   UNK     0      18.944   1.689 -20.683  0.00  0.00    -0.027 A 
HETATM   15  C   UNK     0      18.327   2.178 -22.000  0.00  0.00     0.024 A 
HETATM   16  C   UNK     0      18.192   3.676 -22.286  0.00  0.00     0.004 A 
HETATM   17  C   UNK     0      18.682   4.695 -21.236  0.00  0.00     0.001 A 
HETATM   18  C   UNK     0      19.304   4.226 -19.906  0.00  0.00     0.004 A 
HETATM   19  C   UNK     0      19.433   2.707 -19.634  0.00  0.00     0.024 A 
ENDBRANCH   3  14
TORSDOF 1
ENDMDL
MODEL 3
REMARK VINA RESULT:      -6.9      3.369      4.859
REMARK  1 active torsions:
REMARK  status: ('A' for Active; 'I' for Inactive)
REMARK    1  A    between atoms: C_3  and  C_9 
ROOT
HETATM    1  C   UNK     0     -10.192   0.603 -18.601  0.00  0.00     0.013 A 
HETATM    2  N   UNK     0     -11.332  -1.379 -19.664  0.00  0.00    -0.241 NA
HETATM    3  C   UNK     0     -10.664  -0.005 -19.648  0.00  0.00     0.071 A 
HETATM    4  N   UNK     0     -10.488  -0.798 -16.337  0.00  0.00    -0.223 NA
HETATM    5  C   UNK     0     -10.100   0.263 -17.082  0.00  0.00     0.059 A 
HETATM    6  C   UNK     0     -11.186  -2.055 -16.862  0.00  0.00     0.232 A 
HETATM    7  C   UNK     0      -9.624   1.948 -19.093  0.00  0.00     0.062 A 
HETATM    8  C   UNK     0     -11.573  -2.312 -18.415  0.00  0.00     0.146 A 
HETATM    9  C   UNK     0      -9.453   1.257 -16.099  0.00  0.00     0.051 A 
HETATM   10  O   UNK     0     -11.540  -3.141 -15.841  0.00  0.00    -0.168 OA
HETATM   11  C   UNK     0      -8.981   2.933 -18.111  0.00  0.00     0.018 A 
HETATM   12  C   UNK     0      -8.895   2.588 -16.615  0.00  0.00     0.040 A 
HETATM   13 Cl   UNK     0      -8.413   4.283 -18.623  0.00  0.00    -0.091 Cl
ENDROOT
BRANCH   3  14
HETATM   14  C   UNK     0     -10.537   0.725 -20.992  0.00  0.00    -0.027 A 
HETATM   15  C   UNK     0     -11.507   1.860 -21.346  0.00  0.00     0.024 A 
HETATM   16  C   UNK     0     -11.390   2.594 -22.684  0.00  0.00     0.004 A 
HETATM   17  C   UNK     0     -10.284   2.183 -23.679  0.00  0.00     0.001 A 
HETATM   18  C   UNK     0      -9.298   1.046 -23.344  0.00  0.00     0.004 A 
HETATM   19  C   UNK     0      -9.432   0.315 -21.986  0.00  0.00     0.024 A 
ENDBRANCH   3  14
TORSDOF 1
ENDMDL
MODEL 4
REMARK VINA RESULT:      -6.8     14.976     17.299
REMARK  1 active torsions:
REMARK  status: ('A' for Active; 'I' for Inactive)
REMARK    1  A    between atoms: C_3  and  C_9 
ROOT
HETATM    1  C   UNK     0      -5.881  -6.164 -33.006  0.00  0.00     0.013 A 
HETATM    2  N   UNK     0      -4.758  -8.393 -33.363  0.00  0.00    -0.241 NA
HETATM    3  C   UNK     0      -4.913  -6.878 -33.495  0.00  0.00     0.071 A 
HETATM    4  N   UNK     0      -7.698  -7.612 -31.672  0.00  0.00    -0.223 NA
HETATM    5  C   UNK     0      -7.162  -6.475 -32.172  0.00  0.00     0.059 A 
HETATM    6  C   UNK     0      -7.114  -9.019 -31.821  0.00  0.00     0.232 A 
HETATM    7  C   UNK     0      -5.594  -4.703 -33.401  0.00  0.00     0.062 A 
HETATM    8  C   UNK     0      -5.743  -9.368 -32.611  0.00  0.00     0.146 A 
HETATM    9  C   UNK     0      -8.116  -5.338 -31.756  0.00  0.00     0.051 A 
HETATM   10  O   UNK     0      -7.887 -10.173 -31.173  0.00  0.00    -0.168 OA
HETATM   11  C   UNK     0      -6.546  -3.577 -32.984  0.00  0.00     0.018 A 
HETATM   12  C   UNK     0      -7.806  -3.894 -32.162  0.00  0.00     0.040 A 
HETATM   13 Cl   UNK     0      -6.241  -2.111 -33.391  0.00  0.00    -0.091 Cl
ENDROOT
BRANCH   3  14
HETATM   14  C   UNK     0      -3.824  -6.130 -34.276  0.00  0.00    -0.027 A 
HETATM   15  C   UNK     0      -2.435  -5.926 -33.657  0.00  0.00     0.024 A 
HETATM   16  C   UNK     0      -1.342  -5.182 -34.428  0.00  0.00     0.004 A 
HETATM   17  C   UNK     0      -1.648  -4.635 -35.838  0.00  0.00     0.001 A 
HETATM   18  C   UNK     0      -3.036  -4.829 -36.479  0.00  0.00     0.004 A 
HETATM   19  C   UNK     0      -4.130  -5.584 -35.685  0.00  0.00     0.024 A 
ENDBRANCH   3  14
TORSDOF 1
ENDMDL
MODEL 5
REMARK VINA RESULT:      -6.8     15.772     18.403
REMARK  1 active torsions:
REMARK  status: ('A' for Active; 'I' for Inactive)
REMARK    1  A    between atoms: C_3  and  C_9 
ROOT
HETATM    1  C   UNK     0       4.586   5.585 -10.119  0.00  0.00     0.013 A 
HETATM    2  N   UNK     0       2.453   4.660  -9.143  0.00  0.00    -0.241 NA
HETATM    3  C   UNK     0       3.292   5.599 -10.010  0.00  0.00     0.071 A 
HETATM    4  N   UNK     0       5.756   3.685  -8.636  0.00  0.00    -0.223 NA
HETATM    5  C   UNK     0       5.731   4.723  -9.503  0.00  0.00     0.059 A 
HETATM    6  C   UNK     0       4.534   3.037  -7.978  0.00  0.00     0.232 A 
HETATM    7  C   UNK     0       4.957   6.713 -11.100  0.00  0.00     0.062 A 
HETATM    8  C   UNK     0       3.002   3.502  -8.224  0.00  0.00     0.146 A 
HETATM    9  C   UNK     0       7.200   5.000  -9.874  0.00  0.00     0.051 A 
HETATM   10  O   UNK     0       4.790   1.868  -7.021  0.00  0.00    -0.168 OA
HETATM   11  C   UNK     0       6.420   6.985 -11.465  0.00  0.00     0.018 A 
HETATM   12  C   UNK     0       7.541   6.129 -10.853  0.00  0.00     0.040 A 
HETATM   13 Cl   UNK     0       6.775   8.125 -12.455  0.00  0.00    -0.091 Cl
ENDROOT
BRANCH   3  14
HETATM   14  C   UNK     0       2.536   6.656 -10.826  0.00  0.00    -0.027 A 
HETATM   15  C   UNK     0       1.875   6.274 -12.157  0.00  0.00     0.024 A 
HETATM   16  C   UNK     0       1.119   7.322 -12.978  0.00  0.00     0.004 A 
HETATM   17  C   UNK     0       1.027   8.771 -12.456  0.00  0.00     0.001 A 
HETATM   18  C   UNK     0       1.684   9.177 -11.122  0.00  0.00     0.004 A 
HETATM   19  C   UNK     0       2.444   8.104 -10.305  0.00  0.00     0.024 A 
ENDBRANCH   3  14
TORSDOF 1
ENDMDL
MODEL 6
REMARK VINA RESULT:      -6.7     16.436     18.354
REMARK  1 active torsions:
REMARK  status: ('A' for Active; 'I' for Inactive)
REMARK    1  A    between atoms: C_3  and  C_9 
ROOT
HETATM    1  C   UNK     0      -0.168 -10.612 -10.838  0.00  0.00     0.013 A 
HETATM    2  N   UNK     0      -0.604 -11.402  -8.483  0.00  0.00    -0.241 NA
HETATM    3  C   UNK     0      -0.643 -10.410  -9.646  0.00  0.00     0.071 A 
HETATM    4  N   UNK     0       0.947 -13.029 -11.141  0.00  0.00    -0.223 NA
HETATM    5  C   UNK     0       0.561 -11.797 -11.544  0.00  0.00     0.059 A 
HETATM    6  C   UNK     0       0.741 -13.621  -9.745  0.00  0.00     0.232 A 
HETATM    7  C   UNK     0      -0.445  -9.329 -11.644  0.00  0.00     0.062 A 
HETATM    8  C   UNK     0       0.016 -12.852  -8.516  0.00  0.00     0.146 A 
HETATM    9  C   UNK     0       0.992 -11.678 -13.018  0.00  0.00     0.051 A 
HETATM   10  O   UNK     0       1.259 -15.042  -9.501  0.00  0.00    -0.168 OA
HETATM   11  C   UNK     0      -0.014  -9.217 -13.110  0.00  0.00     0.018 A 
HETATM   12  C   UNK     0       0.704 -10.390 -13.797  0.00  0.00     0.040 A 
HETATM   13 Cl   UNK     0      -0.301  -7.917 -13.908  0.00  0.00    -0.091 Cl
ENDROOT
BRANCH   3  14
HETATM   14  C   UNK     0      -1.301  -9.050  -9.380  0.00  0.00    -0.027 A 
HETATM   15  C   UNK     0      -2.754  -8.802  -9.807  0.00  0.00     0.024 A 
HETATM   16  C   UNK     0      -3.421  -7.448  -9.547  0.00  0.00     0.004 A 
HETATM   17  C   UNK     0      -2.618  -6.330  -8.850  0.00  0.00     0.001 A 
HETATM   18  C   UNK     0      -1.157  -6.557  -8.413  0.00  0.00     0.004 A 
HETATM   19  C   UNK     0      -0.499  -7.933  -8.684  0.00  0.00     0.024 A 
ENDBRANCH   3  14
TORSDOF 1
ENDMDL
MODEL 7
REMARK VINA RESULT:      -6.7     26.719     27.965
REMARK  1 active torsions:
REMARK  status: ('A' for Active; 'I' for Inactive)
REMARK    1  A    between atoms: C_3  and  C_9 
ROOT
HETATM    1  C   UNK     0      17.125   1.251 -20.634  0.00  0.00     0.013 A 
HETATM    2  N   UNK     0      19.234   2.187 -19.617  0.00  0.00    -0.241 NA
HETATM    3  C   UNK     0      18.270   1.080 -20.045  0.00  0.00     0.071 A 
HETATM    4  N   UNK     0      16.530   3.827 -21.072  0.00  0.00    -0.223 NA
HETATM    5  C   UNK     0      16.310   2.492 -21.113  0.00  0.00     0.059 A 
HETATM    6  C   UNK     0      17.765   4.514 -20.484  0.00  0.00     0.232 A 
HETATM    7  C   UNK     0      16.532  -0.152 -20.859  0.00  0.00     0.062 A 
HETATM    8  C   UNK     0      19.017   3.737 -19.809  0.00  0.00     0.146 A 
HETATM    9  C   UNK     0      14.941   2.309 -21.795  0.00  0.00     0.051 A 
HETATM   10  O   UNK     0      17.811   6.044 -20.542  0.00  0.00    -0.168 OA
HETATM   11  C   UNK     0      15.170  -0.329 -21.539  0.00  0.00     0.018 A 
HETATM   12  C   UNK     0      14.375   0.901 -22.007  0.00  0.00     0.040 A 
HETATM   13 Cl   UNK     0      14.589  -1.751 -21.757  0.00  0.00    -0.091 Cl
ENDROOT
BRANCH   3  14
HETATM   14  C   UNK     0      18.693  -0.365 -19.754  0.00  0.00    -0.027 A 
HETATM   15  C   UNK     0      19.437  -1.180 -20.821  0.00  0.00     0.024 A 
HETATM   16  C   UNK     0      19.863  -2.623 -20.540  0.00  0.00     0.004 A 
HETATM   17  C   UNK     0      19.539  -3.256 -19.171  0.00  0.00     0.001 A 
HETATM   18  C   UNK     0      18.793  -2.456 -18.084  0.00  0.00     0.004 A 
HETATM   19  C   UNK     0      18.369  -0.998 -18.386  0.00  0.00     0.024 A 
ENDBRANCH   3  14
TORSDOF 1
ENDMDL
MODEL 8
REMARK VINA RESULT:      -6.6     15.914     17.348
REMARK  1 active torsions:
REMARK  status: ('A' for Active; 'I' for Inactive)
REMARK    1  A    between atoms: C_3  and  C_9 
ROOT
HETATM    1  C   UNK     0      -1.307  -9.846  -9.879  0.00  0.00     0.013 A 
HETATM    2  N   UNK     0      -2.962 -10.550 -11.647  0.00  0.00    -0.241 NA
HETATM    3  C   UNK     0      -1.839 -10.762 -10.631  0.00  0.00     0.071 A 
HETATM    4  N   UNK     0      -2.373  -7.416 -10.250  0.00  0.00    -0.223 NA
HETATM    5  C   UNK     0      -1.532  -8.314  -9.687  0.00  0.00     0.059 A 
HETATM    6  C   UNK     0      -3.417  -7.719 -11.327  0.00  0.00     0.232 A 
HETATM    7  C   UNK     0      -0.226 -10.545  -9.034  0.00  0.00     0.062 A 
HETATM    8  C   UNK     0      -3.681  -9.183 -11.969  0.00  0.00     0.146 A 
HETATM    9  C   UNK     0      -0.687  -7.525  -8.670  0.00  0.00     0.051 A 
HETATM   10  O   UNK     0      -4.269  -6.547 -11.828  0.00  0.00    -0.168 OA
HETATM   11  C   UNK     0       0.613  -9.755  -8.024  0.00  0.00     0.018 A 
HETATM   12  C   UNK     0       0.382  -8.245  -7.842  0.00  0.00     0.040 A 
HETATM   13 Cl   UNK     0       1.697 -10.475  -7.180  0.00  0.00    -0.091 Cl
ENDROOT
BRANCH   3  14
HETATM   14  C   UNK     0      -1.290 -12.187 -10.486  0.00  0.00    -0.027 A 
HETATM   15  C   UNK     0      -1.828 -13.112  -9.386  0.00  0.00     0.024 A 
HETATM   16  C   UNK     0      -1.286 -14.535  -9.234  0.00  0.00     0.004 A 
HETATM   17  C   UNK     0      -0.190 -15.036 -10.197  0.00  0.00     0.001 A 
HETATM   18  C   UNK     0       0.366 -14.124 -11.309  0.00  0.00     0.004 A 
HETATM   19  C   UNK     0      -0.194 -12.687 -11.449  0.00  0.00     0.024 A 
ENDBRANCH   3  14
TORSDOF 1
ENDMDL
MODEL 9
REMARK VINA RESULT:      -6.6     14.946     17.615
REMARK  1 active torsions:
REMARK  status: ('A' for Active; 'I' for Inactive)
REMARK    1  A    between atoms: C_3  and  C_9 
ROOT
HETATM    1  C   UNK     0       4.525   5.599 -10.952  0.00  0.00     0.013 A 
HETATM    2  N   UNK     0       5.234   7.344 -12.629  0.00  0.00    -0.241 NA
HETATM    3  C   UNK     0       4.237   6.455 -11.886  0.00  0.00     0.071 A 
HETATM    4  N   UNK     0       7.141   5.490 -10.383  0.00  0.00    -0.223 NA
HETATM    5  C   UNK     0       5.840   5.141 -10.249  0.00  0.00     0.059 A 
HETATM    6  C   UNK     0       7.694   6.531 -11.360  0.00  0.00     0.232 A 
HETATM    7  C   UNK     0       3.194   4.956 -10.520  0.00  0.00     0.062 A 
HETATM    8  C   UNK     0       6.794   7.387 -12.400  0.00  0.00     0.146 A 
HETATM    9  C   UNK     0       5.800   4.066  -9.147  0.00  0.00     0.051 A 
HETATM   10  O   UNK     0       9.207   6.773 -11.345  0.00  0.00    -0.168 OA
HETATM   11  C   UNK     0       3.160   3.887  -9.422  0.00  0.00     0.018 A 
HETATM   12  C   UNK     0       4.463   3.442  -8.736  0.00  0.00     0.040 A 
HETATM   13 Cl   UNK     0       1.811   3.249  -9.000  0.00  0.00    -0.091 Cl
ENDROOT
BRANCH   3  14
HETATM   14  C   UNK     0       2.759   6.585 -12.278  0.00  0.00    -0.027 A 
HETATM   15  C   UNK     0       1.921   7.756 -11.747  0.00  0.00     0.024 A 
HETATM   16  C   UNK     0       0.446   7.895 -12.132  0.00  0.00     0.004 A 
HETATM   17  C   UNK     0      -0.195   6.844 -13.062  0.00  0.00     0.001 A 
HETATM   18  C   UNK     0       0.627   5.660 -13.607  0.00  0.00     0.004 A 
HETATM   19  C   UNK     0       2.118   5.536 -13.207  0.00  0.00     0.024 A 
ENDBRANCH   3  14
TORSDOF 1
ENDMDL
MODEL 10
REMARK VINA RESULT:      -6.6     26.545     28.163
REMARK  1 active torsions:
REMARK  status: ('A' for Active; 'I' for Inactive)
REMARK    1  A    between atoms: C_3  and  C_9 
ROOT
HETATM    1  C   UNK     0      17.519   0.641 -19.942  0.00  0.00     0.013 A 
HETATM    2  N   UNK     0      17.493   0.340 -17.439  0.00  0.00    -0.241 NA
HETATM    3  C   UNK     0      17.225   1.073 -18.753  0.00  0.00     0.071 A 
HETATM    4  N   UNK     0      18.698  -1.765 -19.936  0.00  0.00    -0.223 NA
HETATM    5  C   UNK     0      18.190  -0.648 -20.508  0.00  0.00     0.059 A 
HETATM    6  C   UNK     0      18.741  -2.063 -18.436  0.00  0.00     0.232 A 
HETATM    7  C   UNK     0      17.054   1.726 -20.931  0.00  0.00     0.062 A 
HETATM    8  C   UNK     0      18.176  -1.074 -17.283  0.00  0.00     0.146 A 
HETATM    9  C   UNK     0      18.382  -0.825 -22.026  0.00  0.00     0.051 A 
HETATM   10  O   UNK     0      19.364  -3.394 -18.002  0.00  0.00    -0.168 OA
HETATM   11  C   UNK     0      17.247   1.546 -22.441  0.00  0.00     0.018 A 
HETATM   12  C   UNK     0      17.911   0.271 -22.988  0.00  0.00     0.040 A 
HETATM   13 Cl   UNK     0      16.774   2.650 -23.423  0.00  0.00    -0.091 Cl
ENDROOT
BRANCH   3  14
HETATM   14  C   UNK     0      16.545   2.445 -18.660  0.00  0.00    -0.027 A 
HETATM   15  C   UNK     0      17.336   3.720 -18.981  0.00  0.00     0.024 A 
HETATM   16  C   UNK     0      16.667   5.094 -18.891  0.00  0.00     0.004 A 
HETATM   17  C   UNK     0      15.184   5.188 -18.473  0.00  0.00     0.001 A 
HETATM   18  C   UNK     0      14.370   3.921 -18.146  0.00  0.00     0.004 A 
HETATM   19  C   UNK     0      15.063   2.540 -18.242  0.00  0.00     0.024 A 
ENDBRANCH   3  14
TORSDOF 1
ENDMDL
