MODEL 1
REMARK VINA RESULT:      -5.8      0.000      0.000
REMARK  4 active torsions:
REMARK  status: ('A' for Active; 'I' for Inactive)
REMARK    1  A    between atoms: C_2  and  C_3 
REMARK    2  A    between atoms: C_3  and  C_4 
REMARK    3  A    between atoms: C_4  and  C_6 
REMARK    4  A    between atoms: C_6  and  C_7 
ROOT
HETATM    1  C   UNK     0       4.992 -16.927 -27.704  0.00  0.00     0.032 A 
HETATM    2  C   UNK     0       5.293 -15.807 -28.717  0.00  0.00     0.155 A 
HETATM    3  N   UNK     0       4.199 -15.336 -29.693  0.00  0.00    -0.156 NA
HETATM    4  C   UNK     0       3.597 -17.576 -27.666  0.00  0.00     0.069 A 
HETATM    5  C   UNK     0       2.502 -17.106 -28.642  0.00  0.00     0.295 A 
HETATM    6  O   UNK     0       1.106 -17.756 -28.605  0.00  0.00    -0.188 OA
HETATM    7  O   UNK     0       2.803 -15.986 -29.655  0.00  0.00    -0.210 OA
ENDROOT
BRANCH   1   8
HETATM    8  C   UNK     0       6.087 -17.397 -26.728  0.00  0.00     0.002 C 
BRANCH   8   9
HETATM    9  C   UNK     0       6.442 -16.541 -25.498  0.00  0.00     0.000 C 
HETATM   10  C   UNK     0       7.516 -15.443 -25.608  0.00  0.00     0.000 C 
BRANCH   9  11
HETATM   11  C   UNK     0       5.722 -16.783 -24.159  0.00  0.00     0.000 C 
BRANCH  11  12
HETATM   12  C   UNK     0       4.462 -17.667 -24.111  0.00  0.00     0.000 C 
HETATM   13  C   UNK     0       4.595 -19.201 -24.125  0.00  0.00     0.000 C 
ENDBRANCH  11  12
ENDBRANCH   9  11
ENDBRANCH   8   9
ENDBRANCH   1   8
TORSDOF 4
ENDMDL
MODEL 2
REMARK VINA RESULT:      -5.7     19.268     20.667
REMARK  4 active torsions:
REMARK  status: ('A' for Active; 'I' for Inactive)
REMARK    1  A    between atoms: C_2  and  C_3 
REMARK    2  A    between atoms: C_3  and  C_4 
REMARK    3  A    between atoms: C_4  and  C_6 
REMARK    4  A    between atoms: C_6  and  C_7 
ROOT
HETATM    1  C   UNK     0      -2.946  -8.233 -10.008  0.00  0.00     0.032 A 
HETATM    2  C   UNK     0      -3.591  -7.041 -10.739  0.00  0.00     0.155 A 
HETATM    3  N   UNK     0      -3.353  -5.607 -10.232  0.00  0.00    -0.156 NA
HETATM    4  C   UNK     0      -2.063  -7.991  -8.770  0.00  0.00     0.069 A 
HETATM    5  C   UNK     0      -1.825  -6.557  -8.263  0.00  0.00     0.295 A 
HETATM    6  O   UNK     0      -0.941  -6.314  -7.024  0.00  0.00    -0.188 OA
HETATM    7  O   UNK     0      -2.469  -5.364  -8.994  0.00  0.00    -0.210 OA
ENDROOT
BRANCH   1   8
HETATM    8  C   UNK     0      -3.185  -9.668 -10.515  0.00  0.00     0.002 C 
BRANCH   8   9
HETATM    9  C   UNK     0      -2.006 -10.653 -10.621  0.00  0.00     0.000 C 
HETATM   10  C   UNK     0      -0.825 -10.343 -11.559  0.00  0.00     0.000 C 
BRANCH   9  11
HETATM   11  C   UNK     0      -2.009 -11.948  -9.788  0.00  0.00     0.000 C 
BRANCH  11  12
HETATM   12  C   UNK     0      -0.916 -12.185  -8.729  0.00  0.00     0.000 C 
HETATM   13  C   UNK     0       0.316 -13.044  -9.072  0.00  0.00     0.000 C 
ENDBRANCH  11  12
ENDBRANCH   9  11
ENDBRANCH   8   9
ENDBRANCH   1   8
TORSDOF 4
ENDMDL
MODEL 3
REMARK VINA RESULT:      -5.7     18.838     20.203
REMARK  4 active torsions:
REMARK  status: ('A' for Active; 'I' for Inactive)
REMARK    1  A    between atoms: C_2  and  C_3 
REMARK    2  A    between atoms: C_3  and  C_4 
REMARK    3  A    between atoms: C_4  and  C_6 
REMARK    4  A    between atoms: C_6  and  C_7 
ROOT
HETATM    1  C   UNK     0      -1.777  -8.049  -9.452  0.00  0.00     0.032 A 
HETATM    2  C   UNK     0      -1.585  -6.792  -8.584  0.00  0.00     0.155 A 
HETATM    3  N   UNK     0      -2.354  -5.501  -8.919  0.00  0.00    -0.156 NA
HETATM    4  C   UNK     0      -2.736  -8.016 -10.655  0.00  0.00     0.069 A 
HETATM    5  C   UNK     0      -3.505  -6.724 -10.991  0.00  0.00     0.295 A 
HETATM    6  O   UNK     0      -4.466  -6.690 -12.195  0.00  0.00    -0.188 OA
HETATM    7  O   UNK     0      -3.314  -5.467 -10.123  0.00  0.00    -0.210 OA
ENDROOT
BRANCH   1   8
HETATM    8  C   UNK     0      -1.008  -9.341  -9.116  0.00  0.00     0.002 C 
BRANCH   8   9
HETATM    9  C   UNK     0      -0.996 -10.513 -10.116  0.00  0.00     0.000 C 
HETATM   10  C   UNK     0       0.050 -10.551 -11.246  0.00  0.00     0.000 C 
BRANCH   9  11
HETATM   11  C   UNK     0      -2.031 -11.645  -9.986  0.00  0.00     0.000 C 
BRANCH  11  12
HETATM   12  C   UNK     0      -1.594 -13.033  -9.479  0.00  0.00     0.000 C 
HETATM   13  C   UNK     0      -0.643 -13.148  -8.272  0.00  0.00     0.000 C 
ENDBRANCH  11  12
ENDBRANCH   9  11
ENDBRANCH   8   9
ENDBRANCH   1   8
TORSDOF 4
ENDMDL
MODEL 4
REMARK VINA RESULT:      -5.5     18.546     19.915
REMARK  4 active torsions:
REMARK  status: ('A' for Active; 'I' for Inactive)
REMARK    1  A    between atoms: C_2  and  C_3 
REMARK    2  A    between atoms: C_3  and  C_4 
REMARK    3  A    between atoms: C_4  and  C_6 
REMARK    4  A    between atoms: C_6  and  C_7 
ROOT
HETATM    1  C   UNK     0      -2.031  -8.372  -9.548  0.00  0.00     0.032 A 
HETATM    2  C   UNK     0      -1.643  -7.155  -8.688  0.00  0.00     0.155 A 
HETATM    3  N   UNK     0      -2.212  -5.764  -9.020  0.00  0.00    -0.156 NA
HETATM    4  C   UNK     0      -2.989  -8.198 -10.740  0.00  0.00     0.069 A 
HETATM    5  C   UNK     0      -3.559  -6.806 -11.074  0.00  0.00     0.295 A 
HETATM    6  O   UNK     0      -4.517  -6.632 -12.267  0.00  0.00    -0.188 OA
HETATM    7  O   UNK     0      -3.170  -5.590 -10.214  0.00  0.00    -0.210 OA
ENDROOT
BRANCH   1   8
HETATM    8  C   UNK     0      -1.461  -9.764  -9.215  0.00  0.00     0.002 C 
BRANCH   8   9
HETATM    9  C   UNK     0       0.004 -10.097  -9.552  0.00  0.00     0.000 C 
HETATM   10  C   UNK     0       1.036 -10.263  -8.420  0.00  0.00     0.000 C 
BRANCH   9  11
HETATM   11  C   UNK     0       0.437 -10.265 -11.019  0.00  0.00     0.000 C 
BRANCH  11  12
HETATM   12  C   UNK     0      -0.568 -10.785 -12.064  0.00  0.00     0.000 C 
HETATM   13  C   UNK     0      -0.910 -12.286 -12.124  0.00  0.00     0.000 C 
ENDBRANCH  11  12
ENDBRANCH   9  11
ENDBRANCH   8   9
ENDBRANCH   1   8
TORSDOF 4
ENDMDL
MODEL 5
REMARK VINA RESULT:      -5.5     18.911     19.963
REMARK  4 active torsions:
REMARK  status: ('A' for Active; 'I' for Inactive)
REMARK    1  A    between atoms: C_2  and  C_3 
REMARK    2  A    between atoms: C_3  and  C_4 
REMARK    3  A    between atoms: C_4  and  C_6 
REMARK    4  A    between atoms: C_6  and  C_7 
ROOT
HETATM    1  C   UNK     0      -3.279  -8.936 -10.730  0.00  0.00     0.032 A 
HETATM    2  C   UNK     0      -3.355  -8.809 -12.263  0.00  0.00     0.155 A 
HETATM    3  N   UNK     0      -3.472  -7.419 -12.914  0.00  0.00    -0.156 NA
HETATM    4  C   UNK     0      -3.319  -7.675  -9.849  0.00  0.00     0.069 A 
HETATM    5  C   UNK     0      -3.435  -6.284 -10.501  0.00  0.00     0.295 A 
HETATM    6  O   UNK     0      -3.475  -5.021  -9.620  0.00  0.00    -0.188 OA
HETATM    7  O   UNK     0      -3.512  -6.156 -12.033  0.00  0.00    -0.210 OA
ENDROOT
BRANCH   1   8
HETATM    8  C   UNK     0      -3.162 -10.327 -10.078  0.00  0.00     0.002 C 
BRANCH   8   9
HETATM    9  C   UNK     0      -1.787 -11.010  -9.960  0.00  0.00     0.000 C 
HETATM   10  C   UNK     0      -1.697 -12.504  -9.598  0.00  0.00     0.000 C 
BRANCH   9  11
HETATM   11  C   UNK     0      -0.501 -10.198 -10.203  0.00  0.00     0.000 C 
BRANCH  11  12
HETATM   12  C   UNK     0       0.293  -9.638  -9.008  0.00  0.00     0.000 C 
HETATM   13  C   UNK     0       1.269 -10.547  -8.237  0.00  0.00     0.000 C 
ENDBRANCH  11  12
ENDBRANCH   9  11
ENDBRANCH   8   9
ENDBRANCH   1   8
TORSDOF 4
ENDMDL
MODEL 6
REMARK VINA RESULT:      -5.4     19.077     20.371
REMARK  4 active torsions:
REMARK  status: ('A' for Active; 'I' for Inactive)
REMARK    1  A    between atoms: C_2  and  C_3 
REMARK    2  A    between atoms: C_3  and  C_4 
REMARK    3  A    between atoms: C_4  and  C_6 
REMARK    4  A    between atoms: C_6  and  C_7 
ROOT
HETATM    1  C   UNK     0      -0.823  -9.212  -9.513  0.00  0.00     0.032 A 
HETATM    2  C   UNK     0      -2.222  -9.782  -9.808  0.00  0.00     0.155 A 
HETATM    3  N   UNK     0      -3.476  -8.940  -9.508  0.00  0.00    -0.156 NA
HETATM    4  C   UNK     0      -0.676  -7.800  -8.918  0.00  0.00     0.069 A 
HETATM    5  C   UNK     0      -1.929  -6.958  -8.617  0.00  0.00     0.295 A 
HETATM    6  O   UNK     0      -1.783  -5.545  -8.021  0.00  0.00    -0.188 OA
HETATM    7  O   UNK     0      -3.329  -7.527  -8.912  0.00  0.00    -0.210 OA
ENDROOT
BRANCH   1   8
HETATM    8  C   UNK     0       0.431 -10.055  -9.814  0.00  0.00     0.002 C 
BRANCH   8   9
HETATM    9  C   UNK     0       0.896 -11.129  -8.812  0.00  0.00     0.000 C 
HETATM   10  C   UNK     0       1.407 -10.713  -7.420  0.00  0.00     0.000 C 
BRANCH   9  11
HETATM   11  C   UNK     0       0.850 -12.617  -9.203  0.00  0.00     0.000 C 
BRANCH  11  12
HETATM   12  C   UNK     0      -0.359 -13.173  -9.978  0.00  0.00     0.000 C 
HETATM   13  C   UNK     0      -1.700 -13.402  -9.254  0.00  0.00     0.000 C 
ENDBRANCH  11  12
ENDBRANCH   9  11
ENDBRANCH   8   9
ENDBRANCH   1   8
TORSDOF 4
ENDMDL
MODEL 7
REMARK VINA RESULT:      -5.2     24.891     25.523
REMARK  4 active torsions:
REMARK  status: ('A' for Active; 'I' for Inactive)
REMARK    1  A    between atoms: C_2  and  C_3 
REMARK    2  A    between atoms: C_3  and  C_4 
REMARK    3  A    between atoms: C_4  and  C_6 
REMARK    4  A    between atoms: C_6  and  C_7 
ROOT
HETATM    1  C   UNK     0     -11.231   2.039 -19.361  0.00  0.00     0.032 A 
HETATM    2  C   UNK     0     -11.500   3.122 -20.422  0.00  0.00     0.155 A 
HETATM    3  N   UNK     0     -10.789   4.485 -20.329  0.00  0.00    -0.156 NA
HETATM    4  C   UNK     0     -10.252   2.318 -18.207  0.00  0.00     0.069 A 
HETATM    5  C   UNK     0      -9.540   3.681 -18.113  0.00  0.00     0.295 A 
HETATM    6  O   UNK     0      -8.560   3.960 -16.958  0.00  0.00    -0.188 OA
HETATM    7  O   UNK     0      -9.809   4.764 -19.174  0.00  0.00    -0.210 OA
ENDROOT
BRANCH   1   8
HETATM    8  C   UNK     0     -11.943   0.676 -19.455  0.00  0.00     0.002 C 
BRANCH   8   9
HETATM    9  C   UNK     0     -11.142  -0.626 -19.261  0.00  0.00     0.000 C 
HETATM   10  C   UNK     0     -10.202  -1.124 -20.374  0.00  0.00     0.000 C 
BRANCH   9  11
HETATM   11  C   UNK     0     -11.282  -1.428 -17.955  0.00  0.00     0.000 C 
BRANCH  11  12
HETATM   12  C   UNK     0     -10.181  -1.349 -16.881  0.00  0.00     0.000 C 
HETATM   13  C   UNK     0     -10.381  -0.461 -15.637  0.00  0.00     0.000 C 
ENDBRANCH  11  12
ENDBRANCH   9  11
ENDBRANCH   8   9
ENDBRANCH   1   8
TORSDOF 4
ENDMDL
MODEL 8
REMARK VINA RESULT:      -5.2     19.578     20.605
REMARK  4 active torsions:
REMARK  status: ('A' for Active; 'I' for Inactive)
REMARK    1  A    between atoms: C_2  and  C_3 
REMARK    2  A    between atoms: C_3  and  C_4 
REMARK    3  A    between atoms: C_4  and  C_6 
REMARK    4  A    between atoms: C_6  and  C_7 
ROOT
HETATM    1  C   UNK     0      -0.603  -9.804  -9.391  0.00  0.00     0.032 A 
HETATM    2  C   UNK     0       0.757  -9.922  -8.677  0.00  0.00     0.155 A 
HETATM    3  N   UNK     0       1.219 -11.282  -8.122  0.00  0.00    -0.156 NA
HETATM    4  C   UNK     0      -1.500 -11.044  -9.549  0.00  0.00     0.069 A 
HETATM    5  C   UNK     0      -1.039 -12.404  -8.993  0.00  0.00     0.295 A 
HETATM    6  O   UNK     0      -1.936 -13.646  -9.151  0.00  0.00    -0.188 OA
HETATM    7  O   UNK     0       0.321 -12.523  -8.280  0.00  0.00    -0.210 OA
ENDROOT
BRANCH   1   8
HETATM    8  C   UNK     0      -1.064  -8.443  -9.947  0.00  0.00     0.002 C 
BRANCH   8   9
HETATM    9  C   UNK     0      -1.900  -7.495  -9.066  0.00  0.00     0.000 C 
HETATM   10  C   UNK     0      -1.240  -6.762  -7.883  0.00  0.00     0.000 C 
BRANCH   9  11
HETATM   11  C   UNK     0      -3.393  -7.279  -9.369  0.00  0.00     0.000 C 
BRANCH  11  12
HETATM   12  C   UNK     0      -3.823  -6.260 -10.441  0.00  0.00     0.000 C 
HETATM   13  C   UNK     0      -3.975  -6.703 -11.908  0.00  0.00     0.000 C 
ENDBRANCH  11  12
ENDBRANCH   9  11
ENDBRANCH   8   9
ENDBRANCH   1   8
TORSDOF 4
ENDMDL
MODEL 9
REMARK VINA RESULT:      -5.1      2.136      3.564
REMARK  4 active torsions:
REMARK  status: ('A' for Active; 'I' for Inactive)
REMARK    1  A    between atoms: C_2  and  C_3 
REMARK    2  A    between atoms: C_3  and  C_4 
REMARK    3  A    between atoms: C_4  and  C_6 
REMARK    4  A    between atoms: C_6  and  C_7 
ROOT
HETATM    1  C   UNK     0       5.667 -16.874 -26.880  0.00  0.00     0.032 A 
HETATM    2  C   UNK     0       4.667 -17.100 -28.030  0.00  0.00     0.155 A 
HETATM    3  N   UNK     0       4.509 -16.038 -29.133  0.00  0.00    -0.156 NA
HETATM    4  C   UNK     0       6.509 -15.587 -26.834  0.00  0.00     0.069 A 
HETATM    5  C   UNK     0       6.352 -14.524 -27.938  0.00  0.00     0.295 A 
HETATM    6  O   UNK     0       7.194 -13.235 -27.892  0.00  0.00    -0.188 OA
HETATM    7  O   UNK     0       5.352 -14.749 -29.087  0.00  0.00    -0.210 OA
ENDROOT
BRANCH   1   8
HETATM    8  C   UNK     0       5.824 -17.937 -25.777  0.00  0.00     0.002 C 
BRANCH   8   9
HETATM    9  C   UNK     0       4.836 -17.974 -24.596  0.00  0.00     0.000 C 
HETATM   10  C   UNK     0       3.538 -18.795 -24.703  0.00  0.00     0.000 C 
BRANCH   9  11
HETATM   11  C   UNK     0       5.147 -17.189 -23.308  0.00  0.00     0.000 C 
BRANCH  11  12
HETATM   12  C   UNK     0       4.982 -15.658 -23.281  0.00  0.00     0.000 C 
HETATM   13  C   UNK     0       3.972 -14.974 -24.222  0.00  0.00     0.000 C 
ENDBRANCH  11  12
ENDBRANCH   9  11
ENDBRANCH   8   9
ENDBRANCH   1   8
TORSDOF 4
ENDMDL
MODEL 10
REMARK VINA RESULT:      -5.1     27.496     28.682
REMARK  4 active torsions:
REMARK  status: ('A' for Active; 'I' for Inactive)
REMARK    1  A    between atoms: C_2  and  C_3 
REMARK    2  A    between atoms: C_3  and  C_4 
REMARK    3  A    between atoms: C_4  and  C_6 
REMARK    4  A    between atoms: C_6  and  C_7 
ROOT
HETATM    1  C   UNK     0       4.132   7.021 -10.073  0.00  0.00     0.032 A 
HETATM    2  C   UNK     0       3.732   8.347 -10.746  0.00  0.00     0.155 A 
HETATM    3  N   UNK     0       4.728   9.075 -11.667  0.00  0.00    -0.156 NA
HETATM    4  C   UNK     0       5.529   6.423 -10.322  0.00  0.00     0.069 A 
HETATM    5  C   UNK     0       6.526   7.150 -11.243  0.00  0.00     0.295 A 
HETATM    6  O   UNK     0       7.923   6.552 -11.492  0.00  0.00    -0.188 OA
HETATM    7  O   UNK     0       6.125   8.477 -11.916  0.00  0.00    -0.210 OA
ENDROOT
BRANCH   1   8
HETATM    8  C   UNK     0       3.136   6.293  -9.152  0.00  0.00     0.002 C 
BRANCH   8   9
HETATM    9  C   UNK     0       2.762   4.825  -9.428  0.00  0.00     0.000 C 
HETATM   10  C   UNK     0       2.346   4.389 -10.845  0.00  0.00     0.000 C 
BRANCH   9  11
HETATM   11  C   UNK     0       2.806   3.792  -8.287  0.00  0.00     0.000 C 
BRANCH  11  12
HETATM   12  C   UNK     0       3.916   2.725  -8.256  0.00  0.00     0.000 C 
HETATM   13  C   UNK     0       5.374   3.121  -8.560  0.00  0.00     0.000 C 
ENDBRANCH  11  12
ENDBRANCH   9  11
ENDBRANCH   8   9
ENDBRANCH   1   8
TORSDOF 4
ENDMDL
