MODEL 1
REMARK VINA RESULT:      -7.5      0.000      0.000
REMARK  0 active torsions:
REMARK  status: ('A' for Active; 'I' for Inactive)
ROOT
HETATM    1  O   UNK     0      13.927  11.612 -30.922  0.00  0.00    -0.304 OA
HETATM    2  O   UNK     0      11.620  15.014 -27.388  0.00  0.00    -0.152 OA
HETATM    3  N   UNK     0      14.200  14.411 -28.100  0.00  0.00     0.418 N 
HETATM    4  N   UNK     0      12.385  13.177 -29.277  0.00  0.00     0.440 N 
HETATM    5  C   UNK     0      14.856  13.445 -29.104  0.00  0.00     0.326 A 
HETATM    6  C   UNK     0      16.248  13.934 -28.665  0.00  0.00    -0.009 A 
HETATM    7  C   UNK     0      15.909  12.677 -29.924  0.00  0.00     0.031 A 
HETATM    8  C   UNK     0      13.734  12.682 -29.831  0.00  0.00     0.424 A 
HETATM    9  C   UNK     0      12.674  14.246 -28.207  0.00  0.00     0.663 A 
HETATM   10  C   UNK     0      17.737  13.687 -28.975  0.00  0.00    -0.032 A 
HETATM   11  C   UNK     0      15.464  11.632 -30.964  0.00  0.00     0.072 A 
HETATM   12  C   UNK     0      15.846  14.971 -27.600  0.00  0.00     0.024 A 
HETATM   13  C   UNK     0      17.408  12.954 -29.703  0.00  0.00    -0.027 A 
HETATM   14  C   UNK     0      16.518  10.864 -31.783  0.00  0.00     0.051 A 
HETATM   15  C   UNK     0      18.822  14.477 -28.219  0.00  0.00     0.025 A 
HETATM   16  C   UNK     0      16.930  15.760 -26.845  0.00  0.00     0.005 A 
HETATM   17  C   UNK     0      18.462  12.186 -30.523  0.00  0.00     0.026 A 
HETATM   18  C   UNK     0      18.017  11.141 -31.562  0.00  0.00     0.011 A 
HETATM   19  C   UNK     0      18.418  15.514 -27.154  0.00  0.00     0.005 A 
ENDROOT
TORSDOF 0
ENDMDL
MODEL 2
REMARK VINA RESULT:      -7.2      1.183      4.085
REMARK  0 active torsions:
REMARK  status: ('A' for Active; 'I' for Inactive)
ROOT
HETATM    1  O   UNK     0      14.000  15.563 -27.135  0.00  0.00    -0.304 OA
HETATM    2  O   UNK     0      11.184  12.249 -30.371  0.00  0.00    -0.152 OA
HETATM    3  N   UNK     0      13.850  12.716 -29.918  0.00  0.00     0.418 N 
HETATM    4  N   UNK     0      12.225  14.065 -28.597  0.00  0.00     0.440 N 
HETATM    5  C   UNK     0      14.650  13.657 -28.999  0.00  0.00     0.326 A 
HETATM    6  C   UNK     0      15.965  13.086 -29.560  0.00  0.00    -0.009 A 
HETATM    7  C   UNK     0      15.817  14.376 -28.298  0.00  0.00     0.031 A 
HETATM    8  C   UNK     0      13.646  14.491 -28.183  0.00  0.00     0.424 A 
HETATM    9  C   UNK     0      12.352  12.968 -29.670  0.00  0.00     0.663 A 
HETATM   10  C   UNK     0      17.488  13.254 -29.398  0.00  0.00    -0.032 A 
HETATM   11  C   UNK     0      15.531  15.458 -27.240  0.00  0.00     0.072 A 
HETATM   12  C   UNK     0      15.407  12.060 -30.562  0.00  0.00     0.024 A 
HETATM   13  C   UNK     0      17.271  14.014 -28.655  0.00  0.00    -0.027 A 
HETATM   14  C   UNK     0      16.699  16.177 -26.539  0.00  0.00     0.051 A 
HETATM   15  C   UNK     0      18.451  12.395 -30.239  0.00  0.00     0.025 A 
HETATM   16  C   UNK     0      16.370  11.201 -31.403  0.00  0.00     0.005 A 
HETATM   17  C   UNK     0      18.438  14.733 -27.954  0.00  0.00     0.026 A 
HETATM   18  C   UNK     0      18.153  15.814 -26.896  0.00  0.00     0.011 A 
HETATM   19  C   UNK     0      17.891  11.369 -31.242  0.00  0.00     0.005 A 
ENDROOT
TORSDOF 0
ENDMDL
MODEL 3
REMARK VINA RESULT:      -7.0     23.990     25.872
REMARK  0 active torsions:
REMARK  status: ('A' for Active; 'I' for Inactive)
ROOT
HETATM    1  O   UNK     0       6.069   1.878 -11.559  0.00  0.00    -0.304 OA
HETATM    2  O   UNK     0       6.879   3.171  -6.358  0.00  0.00    -0.152 OA
HETATM    3  N   UNK     0       4.673   2.705  -7.920  0.00  0.00     0.418 N 
HETATM    4  N   UNK     0       6.899   2.525  -9.025  0.00  0.00     0.440 N 
HETATM    5  C   UNK     0       4.442   2.338  -9.398  0.00  0.00     0.326 A 
HETATM    6  C   UNK     0       2.921   2.336  -9.160  0.00  0.00    -0.009 A 
HETATM    7  C   UNK     0       3.753   1.988 -10.730  0.00  0.00     0.031 A 
HETATM    8  C   UNK     0       5.818   2.227 -10.080  0.00  0.00     0.424 A 
HETATM    9  C   UNK     0       6.191   2.821  -7.690  0.00  0.00     0.663 A 
HETATM   10  C   UNK     0       1.607   2.098  -9.928  0.00  0.00    -0.032 A 
HETATM   11  C   UNK     0       4.600   1.716 -11.987  0.00  0.00     0.072 A 
HETATM   12  C   UNK     0       2.883   2.697  -7.664  0.00  0.00     0.024 A 
HETATM   13  C   UNK     0       2.217   1.909 -10.804  0.00  0.00    -0.027 A 
HETATM   14  C   UNK     0       3.911   1.366 -13.318  0.00  0.00     0.051 A 
HETATM   15  C   UNK     0       0.256   2.222  -9.199  0.00  0.00     0.025 A 
HETATM   16  C   UNK     0       1.532   2.821  -6.935  0.00  0.00     0.005 A 
HETATM   17  C   UNK     0       1.528   1.559 -12.136  0.00  0.00     0.026 A 
HETATM   18  C   UNK     0       2.374   1.287 -13.393  0.00  0.00     0.011 A 
HETATM   19  C   UNK     0       0.219   2.583  -7.702  0.00  0.00     0.005 A 
ENDROOT
TORSDOF 0
ENDMDL
MODEL 4
REMARK VINA RESULT:      -7.0     29.082     29.670
REMARK  0 active torsions:
REMARK  status: ('A' for Active; 'I' for Inactive)
ROOT
HETATM    1  O   UNK     0     -10.146   4.711 -19.288  0.00  0.00    -0.304 OA
HETATM    2  O   UNK     0      -7.241   2.150 -15.494  0.00  0.00    -0.152 OA
HETATM    3  N   UNK     0      -8.333   1.442 -17.910  0.00  0.00     0.418 N 
HETATM    4  N   UNK     0      -8.682   3.791 -17.157  0.00  0.00     0.440 N 
HETATM    5  C   UNK     0      -9.157   2.169 -18.988  0.00  0.00     0.326 A 
HETATM    6  C   UNK     0      -9.198   0.879 -19.827  0.00  0.00    -0.009 A 
HETATM    7  C   UNK     0      -9.955   2.462 -20.272  0.00  0.00     0.031 A 
HETATM    8  C   UNK     0      -9.373   3.621 -18.522  0.00  0.00     0.424 A 
HETATM    9  C   UNK     0      -8.039   2.444 -16.779  0.00  0.00     0.663 A 
HETATM   10  C   UNK     0      -9.760   0.358 -21.163  0.00  0.00    -0.032 A 
HETATM   11  C   UNK     0     -10.541   3.867 -20.511  0.00  0.00     0.072 A 
HETATM   12  C   UNK     0      -8.393  -0.062 -18.912  0.00  0.00     0.024 A 
HETATM   13  C   UNK     0     -10.166   1.352 -21.318  0.00  0.00    -0.027 A 
HETATM   14  C   UNK     0     -11.338   4.159 -21.796  0.00  0.00     0.051 A 
HETATM   15  C   UNK     0      -9.516  -1.103 -21.584  0.00  0.00     0.025 A 
HETATM   16  C   UNK     0      -8.149  -1.523 -19.333  0.00  0.00     0.005 A 
HETATM   17  C   UNK     0     -10.964   1.645 -22.602  0.00  0.00     0.026 A 
HETATM   18  C   UNK     0     -11.549   3.049 -22.841  0.00  0.00     0.011 A 
HETATM   19  C   UNK     0      -8.710  -2.044 -20.668  0.00  0.00     0.005 A 
ENDROOT
TORSDOF 0
ENDMDL
MODEL 5
REMARK VINA RESULT:      -7.0     23.018     23.312
REMARK  0 active torsions:
REMARK  status: ('A' for Active; 'I' for Inactive)
ROOT
HETATM    1  O   UNK     0       4.135   3.352 -12.210  0.00  0.00    -0.304 OA
HETATM    2  O   UNK     0       7.175   5.765  -8.426  0.00  0.00    -0.152 OA
HETATM    3  N   UNK     0       4.932   6.459  -9.847  0.00  0.00     0.418 N 
HETATM    4  N   UNK     0       5.911   4.213 -10.303  0.00  0.00     0.440 N 
HETATM    5  C   UNK     0       4.069   5.774 -10.921  0.00  0.00     0.326 A 
HETATM    6  C   UNK     0       3.153   7.010 -10.973  0.00  0.00    -0.009 A 
HETATM    7  C   UNK     0       2.964   5.503 -11.960  0.00  0.00     0.031 A 
HETATM    8  C   UNK     0       4.673   4.386 -11.204  0.00  0.00     0.424 A 
HETATM    9  C   UNK     0       6.071   5.495  -9.465  0.00  0.00     0.663 A 
HETATM   10  C   UNK     0       1.895   7.517 -11.705  0.00  0.00    -0.032 A 
HETATM   11  C   UNK     0       2.936   4.166 -12.724  0.00  0.00     0.072 A 
HETATM   12  C   UNK     0       3.844   7.900  -9.924  0.00  0.00     0.024 A 
HETATM   13  C   UNK     0       1.888   6.570 -12.235  0.00  0.00    -0.027 A 
HETATM   14  C   UNK     0       1.831   3.897 -13.762  0.00  0.00     0.051 A 
HETATM   15  C   UNK     0       1.330   8.913 -11.386  0.00  0.00     0.025 A 
HETATM   16  C   UNK     0       3.278   9.296  -9.606  0.00  0.00     0.005 A 
HETATM   17  C   UNK     0       0.784   6.300 -13.273  0.00  0.00     0.026 A 
HETATM   18  C   UNK     0       0.755   4.964 -14.037  0.00  0.00     0.011 A 
HETATM   19  C   UNK     0       2.021   9.803 -10.337  0.00  0.00     0.005 A 
ENDROOT
TORSDOF 0
ENDMDL
MODEL 6
REMARK VINA RESULT:      -6.9     17.680     19.621
REMARK  0 active torsions:
REMARK  status: ('A' for Active; 'I' for Inactive)
ROOT
HETATM    1  O   UNK     0      13.564  -6.669 -35.862  0.00  0.00    -0.304 OA
HETATM    2  O   UNK     0      11.484  -9.652 -31.842  0.00  0.00    -0.152 OA
HETATM    3  N   UNK     0      12.108  -7.000 -32.168  0.00  0.00     0.418 N 
HETATM    4  N   UNK     0      12.551  -8.512 -34.098  0.00  0.00     0.440 N 
HETATM    5  C   UNK     0      12.699  -6.153 -33.309  0.00  0.00     0.326 A 
HETATM    6  C   UNK     0      12.602  -4.895 -32.426  0.00  0.00    -0.009 A 
HETATM    7  C   UNK     0      13.231  -4.958 -34.123  0.00  0.00     0.031 A 
HETATM    8  C   UNK     0      12.972  -7.087 -34.502  0.00  0.00     0.424 A 
HETATM    9  C   UNK     0      12.016  -8.458 -32.655  0.00  0.00     0.663 A 
HETATM   10  C   UNK     0      12.909  -3.387 -32.483  0.00  0.00    -0.032 A 
HETATM   11  C   UNK     0      13.735  -5.170 -35.563  0.00  0.00     0.072 A 
HETATM   12  C   UNK     0      12.004  -5.511 -31.148  0.00  0.00     0.024 A 
HETATM   13  C   UNK     0      13.260  -3.552 -33.496  0.00  0.00    -0.027 A 
HETATM   14  C   UNK     0      14.267  -3.975 -36.375  0.00  0.00     0.051 A 
HETATM   15  C   UNK     0      12.616  -2.495 -31.262  0.00  0.00     0.025 A 
HETATM   16  C   UNK     0      11.711  -4.619 -29.927  0.00  0.00     0.005 A 
HETATM   17  C   UNK     0      13.792  -2.357 -34.309  0.00  0.00     0.026 A 
HETATM   18  C   UNK     0      14.296  -2.569 -35.748  0.00  0.00     0.011 A 
HETATM   19  C   UNK     0      12.017  -3.111 -29.984  0.00  0.00     0.005 A 
ENDROOT
TORSDOF 0
ENDMDL
MODEL 7
REMARK VINA RESULT:      -6.9     15.337     15.533
REMARK  0 active torsions:
REMARK  status: ('A' for Active; 'I' for Inactive)
ROOT
HETATM    1  O   UNK     0      16.085   3.182 -22.182  0.00  0.00    -0.304 OA
HETATM    2  O   UNK     0      14.264   4.171 -17.173  0.00  0.00    -0.152 OA
HETATM    3  N   UNK     0      15.855   2.250 -18.315  0.00  0.00     0.418 N 
HETATM    4  N   UNK     0      14.966   4.024 -19.822  0.00  0.00     0.440 N 
HETATM    5  C   UNK     0      16.372   1.968 -19.737  0.00  0.00     0.326 A 
HETATM    6  C   UNK     0      17.117   0.724 -19.220  0.00  0.00    -0.009 A 
HETATM    7  C   UNK     0      17.094   1.316 -20.931  0.00  0.00     0.031 A 
HETATM    8  C   UNK     0      15.823   3.065 -20.668  0.00  0.00     0.424 A 
HETATM    9  C   UNK     0      14.986   3.520 -18.367  0.00  0.00     0.663 A 
HETATM   10  C   UNK     0      18.021  -0.410 -19.739  0.00  0.00    -0.032 A 
HETATM   11  C   UNK     0      16.980   1.940 -22.335  0.00  0.00     0.072 A 
HETATM   12  C   UNK     0      16.738   0.785 -17.729  0.00  0.00     0.024 A 
HETATM   13  C   UNK     0      17.931   0.041 -20.721  0.00  0.00    -0.027 A 
HETATM   14  C   UNK     0      17.702   1.288 -23.528  0.00  0.00     0.051 A 
HETATM   15  C   UNK     0      18.545  -1.483 -18.766  0.00  0.00     0.025 A 
HETATM   16  C   UNK     0      17.261  -0.289 -16.757  0.00  0.00     0.005 A 
HETATM   17  C   UNK     0      18.653  -0.611 -21.915  0.00  0.00     0.026 A 
HETATM   18  C   UNK     0      18.539   0.012 -23.318  0.00  0.00     0.011 A 
HETATM   19  C   UNK     0      18.165  -1.422 -17.275  0.00  0.00     0.005 A 
ENDROOT
TORSDOF 0
ENDMDL
MODEL 8
REMARK VINA RESULT:      -6.9     15.093     15.573
REMARK  0 active torsions:
REMARK  status: ('A' for Active; 'I' for Inactive)
ROOT
HETATM    1  O   UNK     0      15.349  -0.442 -19.480  0.00  0.00    -0.304 OA
HETATM    2  O   UNK     0      20.391  -0.856 -21.427  0.00  0.00    -0.152 OA
HETATM    3  N   UNK     0      18.858   1.189 -20.430  0.00  0.00     0.418 N 
HETATM    4  N   UNK     0      17.809  -1.070 -20.520  0.00  0.00     0.440 N 
HETATM    5  C   UNK     0      17.426   1.307 -19.876  0.00  0.00     0.326 A 
HETATM    6  C   UNK     0      17.642   2.813 -19.638  0.00  0.00    -0.009 A 
HETATM    7  C   UNK     0      16.130   1.884 -19.276  0.00  0.00     0.031 A 
HETATM    8  C   UNK     0      16.778  -0.089 -19.932  0.00  0.00     0.424 A 
HETATM    9  C   UNK     0      19.095  -0.279 -20.827  0.00  0.00     0.663 A 
HETATM   10  C   UNK     0      16.886   4.042 -19.099  0.00  0.00    -0.032 A 
HETATM   11  C   UNK     0      14.921   0.964 -19.025  0.00  0.00     0.072 A 
HETATM   12  C   UNK     0      19.090   2.959 -20.141  0.00  0.00     0.024 A 
HETATM   13  C   UNK     0      16.043   3.382 -18.928  0.00  0.00    -0.027 A 
HETATM   14  C   UNK     0      13.626   1.542 -18.425  0.00  0.00     0.051 A 
HETATM   15  C   UNK     0      17.579   5.417 -19.064  0.00  0.00     0.025 A 
HETATM   16  C   UNK     0      19.782   4.334 -20.106  0.00  0.00     0.005 A 
HETATM   17  C   UNK     0      14.748   3.959 -18.328  0.00  0.00     0.026 A 
HETATM   18  C   UNK     0      13.539   3.039 -18.076  0.00  0.00     0.011 A 
HETATM   19  C   UNK     0      19.027   5.563 -19.568  0.00  0.00     0.005 A 
ENDROOT
TORSDOF 0
ENDMDL
MODEL 9
REMARK VINA RESULT:      -6.8     15.002     15.026
REMARK  0 active torsions:
REMARK  status: ('A' for Active; 'I' for Inactive)
ROOT
HETATM    1  O   UNK     0      15.525  -0.704 -19.483  0.00  0.00    -0.304 OA
HETATM    2  O   UNK     0      12.694   3.544 -17.660  0.00  0.00    -0.152 OA
HETATM    3  N   UNK     0      15.222   3.183 -18.664  0.00  0.00     0.418 N 
HETATM    4  N   UNK     0      13.774   1.163 -18.493  0.00  0.00     0.440 N 
HETATM    5  C   UNK     0      16.026   1.977 -19.182  0.00  0.00     0.326 A 
HETATM    6  C   UNK     0      17.228   2.898 -19.461  0.00  0.00    -0.009 A 
HETATM    7  C   UNK     0      17.162   1.114 -19.761  0.00  0.00     0.031 A 
HETATM    8  C   UNK     0      15.131   0.728 -19.076  0.00  0.00     0.424 A 
HETATM    9  C   UNK     0      13.830   2.681 -18.239  0.00  0.00     0.663 A 
HETATM   10  C   UNK     0      18.666   2.828 -20.008  0.00  0.00    -0.032 A 
HETATM   11  C   UNK     0      16.955  -0.400 -19.959  0.00  0.00     0.072 A 
HETATM   12  C   UNK     0      16.645   4.246 -19.000  0.00  0.00     0.024 A 
HETATM   13  C   UNK     0      18.505   1.764 -20.142  0.00  0.00    -0.027 A 
HETATM   14  C   UNK     0      18.092  -1.262 -20.538  0.00  0.00     0.051 A 
HETATM   15  C   UNK     0      19.521   4.106 -20.094  0.00  0.00     0.025 A 
HETATM   16  C   UNK     0      17.500   5.525 -19.085  0.00  0.00     0.005 A 
HETATM   17  C   UNK     0      19.641   0.900 -20.721  0.00  0.00     0.026 A 
HETATM   18  C   UNK     0      19.435  -0.612 -20.918  0.00  0.00     0.011 A 
HETATM   19  C   UNK     0      18.937   5.455 -19.632  0.00  0.00     0.005 A 
ENDROOT
TORSDOF 0
ENDMDL
MODEL 10
REMARK VINA RESULT:      -6.7     29.514     30.384
REMARK  0 active torsions:
REMARK  status: ('A' for Active; 'I' for Inactive)
ROOT
HETATM    1  O   UNK     0      -8.301  -0.401 -16.814  0.00  0.00    -0.304 OA
HETATM    2  O   UNK     0     -10.177  -3.303 -20.991  0.00  0.00    -0.152 OA
HETATM    3  N   UNK     0     -10.121  -0.635 -20.350  0.00  0.00     0.418 N 
HETATM    4  N   UNK     0      -9.102  -2.213 -18.713  0.00  0.00     0.440 N 
HETATM    5  C   UNK     0      -9.589   0.190 -19.164  0.00  0.00     0.326 A 
HETATM    6  C   UNK     0     -10.078   1.482 -19.843  0.00  0.00    -0.009 A 
HETATM    7  C   UNK     0      -9.233   1.373 -18.246  0.00  0.00     0.031 A 
HETATM    8  C   UNK     0      -8.959  -0.786 -18.153  0.00  0.00     0.424 A 
HETATM    9  C   UNK     0      -9.821  -2.119 -20.072  0.00  0.00     0.663 A 
HETATM   10  C   UNK     0     -10.110   3.003 -19.601  0.00  0.00    -0.032 A 
HETATM   11  C   UNK     0      -8.509   1.120 -16.910  0.00  0.00     0.072 A 
HETATM   12  C   UNK     0     -10.688   0.895 -21.129  0.00  0.00     0.024 A 
HETATM   13  C   UNK     0      -9.600   2.809 -18.663  0.00  0.00    -0.027 A 
HETATM   14  C   UNK     0      -8.154   2.304 -15.991  0.00  0.00     0.051 A 
HETATM   15  C   UNK     0     -10.752   3.936 -20.644  0.00  0.00     0.025 A 
HETATM   16  C   UNK     0     -11.329   1.828 -22.173  0.00  0.00     0.005 A 
HETATM   17  C   UNK     0      -9.244   3.993 -17.744  0.00  0.00     0.026 A 
HETATM   18  C   UNK     0      -8.521   3.740 -16.409  0.00  0.00     0.011 A 
HETATM   19  C   UNK     0     -11.362   3.348 -21.931  0.00  0.00     0.005 A 
ENDROOT
TORSDOF 0
ENDMDL
