MODEL 1
REMARK VINA RESULT:      -5.3      0.000      0.000
REMARK  2 active torsions:
REMARK  status: ('A' for Active; 'I' for Inactive)
REMARK    1  A    between atoms: C_1  and  C_2 
REMARK    2  A    between atoms: C_1  and  C_5 
ROOT
HETATM    1  C   UNK     0       5.132 -16.255 -27.269  0.00  0.00     0.035 A 
HETATM    2  C   UNK     0       5.548 -15.396 -28.479  0.00  0.00     0.120 A 
HETATM    3  N   UNK     0       4.633 -15.312 -29.714  0.00  0.00    -0.296 NA
HETATM    4  C   UNK     0       3.802 -17.029 -27.296  0.00  0.00     0.004 A 
HETATM    5  C   UNK     0       2.886 -16.945 -28.531  0.00  0.00     0.024 A 
HETATM    6  C   UNK     0       3.302 -16.086 -29.741  0.00  0.00     0.120 A 
HETATM    7  C   UNK     0       1.556 -17.719 -28.558  0.00  0.00     0.002 C 
ENDROOT
BRANCH   1   8
HETATM    8  C   UNK     0       6.048 -16.339 -26.034  0.00  0.00     0.100 C 
BRANCH   8   9
HETATM    9  C   UNK     0       7.178 -17.459 -25.955  0.00  0.00     0.185 C 
HETATM   10  O   UNK     0       6.684 -18.896 -25.937  0.00  0.00    -0.647 OA
HETATM   11  O   UNK     0       8.650 -17.090 -25.903  0.00  0.00    -0.647 OA
ENDBRANCH   8   9
ENDBRANCH   1   8
TORSDOF 2
ENDMDL
MODEL 2
REMARK VINA RESULT:      -5.2     20.264     21.162
REMARK  2 active torsions:
REMARK  status: ('A' for Active; 'I' for Inactive)
REMARK    1  A    between atoms: C_1  and  C_2 
REMARK    2  A    between atoms: C_1  and  C_5 
ROOT
HETATM    1  C   UNK     0      -2.674  -8.681  -9.760  0.00  0.00     0.035 A 
HETATM    2  C   UNK     0      -3.198  -9.705 -10.784  0.00  0.00     0.120 A 
HETATM    3  N   UNK     0      -2.348 -10.936 -11.148  0.00  0.00    -0.296 NA
HETATM    4  C   UNK     0      -1.298  -8.888  -9.100  0.00  0.00     0.004 A 
HETATM    5  C   UNK     0      -0.447 -10.119  -9.463  0.00  0.00     0.024 A 
HETATM    6  C   UNK     0      -0.971 -11.143 -10.487  0.00  0.00     0.120 A 
HETATM    7  C   UNK     0       0.928 -10.326  -8.803  0.00  0.00     0.002 C 
ENDROOT
BRANCH   1   8
HETATM    8  C   UNK     0      -3.525  -7.450  -9.396  0.00  0.00     0.100 C 
BRANCH   8   9
HETATM    9  C   UNK     0      -3.493  -6.157 -10.327  0.00  0.00     0.185 C 
HETATM   10  O   UNK     0      -3.526  -4.821  -9.603  0.00  0.00    -0.647 OA
HETATM   11  O   UNK     0      -3.433  -6.276 -11.839  0.00  0.00    -0.647 OA
ENDBRANCH   8   9
ENDBRANCH   1   8
TORSDOF 2
ENDMDL
MODEL 3
REMARK VINA RESULT:      -5.2     31.392     32.777
REMARK  2 active torsions:
REMARK  status: ('A' for Active; 'I' for Inactive)
REMARK    1  A    between atoms: C_1  and  C_2 
REMARK    2  A    between atoms: C_1  and  C_5 
ROOT
HETATM    1  C   UNK     0      17.417  13.103 -29.630  0.00  0.00     0.035 A 
HETATM    2  C   UNK     0      15.880  13.059 -29.727  0.00  0.00     0.120 A 
HETATM    3  N   UNK     0      15.024  13.938 -28.798  0.00  0.00    -0.296 NA
HETATM    4  C   UNK     0      18.097  14.026 -28.603  0.00  0.00     0.004 A 
HETATM    5  C   UNK     0      17.241  14.906 -27.673  0.00  0.00     0.024 A 
HETATM    6  C   UNK     0      15.704  14.862 -27.770  0.00  0.00     0.120 A 
HETATM    7  C   UNK     0      17.920  15.830 -26.646  0.00  0.00     0.002 C 
ENDROOT
BRANCH   1   8
HETATM    8  C   UNK     0      18.273  12.223 -30.560  0.00  0.00     0.100 C 
BRANCH   8   9
HETATM    9  C   UNK     0      17.670  11.702 -31.940  0.00  0.00     0.185 C 
HETATM   10  O   UNK     0      17.836  12.636 -33.128  0.00  0.00    -0.647 OA
HETATM   11  O   UNK     0      16.977  10.355 -32.039  0.00  0.00    -0.647 OA
ENDBRANCH   8   9
ENDBRANCH   1   8
TORSDOF 2
ENDMDL
MODEL 4
REMARK VINA RESULT:      -5.2     20.614     21.499
REMARK  2 active torsions:
REMARK  status: ('A' for Active; 'I' for Inactive)
REMARK    1  A    between atoms: C_1  and  C_2 
REMARK    2  A    between atoms: C_1  and  C_5 
ROOT
HETATM    1  C   UNK     0      -3.141  -8.017 -10.076  0.00  0.00     0.035 A 
HETATM    2  C   UNK     0      -3.741  -6.648 -10.448  0.00  0.00     0.120 A 
HETATM    3  N   UNK     0      -3.297  -5.381  -9.694  0.00  0.00    -0.296 NA
HETATM    4  C   UNK     0      -2.096  -8.118  -8.949  0.00  0.00     0.004 A 
HETATM    5  C   UNK     0      -1.652  -6.851  -8.195  0.00  0.00     0.024 A 
HETATM    6  C   UNK     0      -2.252  -5.482  -8.567  0.00  0.00     0.120 A 
HETATM    7  C   UNK     0      -0.607  -6.952  -7.068  0.00  0.00     0.002 C 
ENDROOT
BRANCH   1   8
HETATM    8  C   UNK     0      -3.585  -9.283 -10.830  0.00  0.00     0.100 C 
BRANCH   8   9
HETATM    9  C   UNK     0      -2.495 -10.317 -11.362  0.00  0.00     0.185 C 
HETATM   10  O   UNK     0      -1.811  -9.943 -12.667  0.00  0.00    -0.647 OA
HETATM   11  O   UNK     0      -2.177 -11.589 -10.598  0.00  0.00    -0.647 OA
ENDBRANCH   8   9
ENDBRANCH   1   8
TORSDOF 2
ENDMDL
MODEL 5
REMARK VINA RESULT:      -5.1     10.921     12.111
REMARK  2 active torsions:
REMARK  status: ('A' for Active; 'I' for Inactive)
REMARK    1  A    between atoms: C_1  and  C_2 
REMARK    2  A    between atoms: C_1  and  C_5 
ROOT
HETATM    1  C   UNK     0      -4.670 -13.590 -23.204  0.00  0.00     0.035 A 
HETATM    2  C   UNK     0      -5.945 -12.786 -23.523  0.00  0.00     0.120 A 
HETATM    3  N   UNK     0      -7.086 -12.711 -22.493  0.00  0.00    -0.296 NA
HETATM    4  C   UNK     0      -4.538 -14.319 -21.855  0.00  0.00     0.004 A 
HETATM    5  C   UNK     0      -5.680 -14.244 -20.824  0.00  0.00     0.024 A 
HETATM    6  C   UNK     0      -6.954 -13.440 -21.143  0.00  0.00     0.120 A 
HETATM    7  C   UNK     0      -5.548 -14.973 -19.474  0.00  0.00     0.002 C 
ENDROOT
BRANCH   1   8
HETATM    8  C   UNK     0      -3.529 -13.665 -24.235  0.00  0.00     0.100 C 
BRANCH   8   9
HETATM    9  C   UNK     0      -3.586 -12.770 -25.552  0.00  0.00     0.185 C 
HETATM   10  O   UNK     0      -3.463 -13.521 -26.867  0.00  0.00    -0.647 OA
HETATM   11  O   UNK     0      -3.752 -11.263 -25.474  0.00  0.00    -0.647 OA
ENDBRANCH   8   9
ENDBRANCH   1   8
TORSDOF 2
ENDMDL
MODEL 6
REMARK VINA RESULT:      -5.1      3.414      5.120
REMARK  2 active torsions:
REMARK  status: ('A' for Active; 'I' for Inactive)
REMARK    1  A    between atoms: C_1  and  C_2 
REMARK    2  A    between atoms: C_1  and  C_5 
ROOT
HETATM    1  C   UNK     0       5.669 -16.230 -27.416  0.00  0.00     0.035 A 
HETATM    2  C   UNK     0       6.072 -16.767 -26.030  0.00  0.00     0.120 A 
HETATM    3  N   UNK     0       7.042 -15.963 -25.144  0.00  0.00    -0.296 NA
HETATM    4  C   UNK     0       6.236 -14.889 -27.916  0.00  0.00     0.004 A 
HETATM    5  C   UNK     0       7.206 -14.084 -27.031  0.00  0.00     0.024 A 
HETATM    6  C   UNK     0       7.609 -14.621 -25.644  0.00  0.00     0.120 A 
HETATM    7  C   UNK     0       7.773 -12.743 -27.531  0.00  0.00     0.002 C 
ENDROOT
BRANCH   1   8
HETATM    8  C   UNK     0       4.699 -17.034 -28.301  0.00  0.00     0.100 C 
BRANCH   8   9
HETATM    9  C   UNK     0       3.495 -16.296 -29.038  0.00  0.00     0.185 C 
HETATM   10  O   UNK     0       2.131 -16.444 -28.386  0.00  0.00    -0.647 OA
HETATM   11  O   UNK     0       3.720 -15.500 -30.311  0.00  0.00    -0.647 OA
ENDBRANCH   8   9
ENDBRANCH   1   8
TORSDOF 2
ENDMDL
MODEL 7
REMARK VINA RESULT:      -5.0     19.935     20.774
REMARK  2 active torsions:
REMARK  status: ('A' for Active; 'I' for Inactive)
REMARK    1  A    between atoms: C_1  and  C_2 
REMARK    2  A    between atoms: C_1  and  C_5 
ROOT
HETATM    1  C   UNK     0      -2.025  -9.048 -10.351  0.00  0.00     0.035 A 
HETATM    2  C   UNK     0      -1.041  -8.914 -11.529  0.00  0.00     0.120 A 
HETATM    3  N   UNK     0       0.062  -9.968 -11.736  0.00  0.00    -0.296 NA
HETATM    4  C   UNK     0      -1.905 -10.237  -9.381  0.00  0.00     0.004 A 
HETATM    5  C   UNK     0      -0.802 -11.291  -9.587  0.00  0.00     0.024 A 
HETATM    6  C   UNK     0       0.182 -11.157 -10.764  0.00  0.00     0.120 A 
HETATM    7  C   UNK     0      -0.682 -12.480  -8.616  0.00  0.00     0.002 C 
ENDROOT
BRANCH   1   8
HETATM    8  C   UNK     0      -3.128  -7.993 -10.146  0.00  0.00     0.100 C 
BRANCH   8   9
HETATM    9  C   UNK     0      -2.827  -6.683  -9.290  0.00  0.00     0.185 C 
HETATM   10  O   UNK     0      -2.159  -6.912  -7.944  0.00  0.00    -0.647 OA
HETATM   11  O   UNK     0      -3.193  -5.303  -9.807  0.00  0.00    -0.647 OA
ENDBRANCH   8   9
ENDBRANCH   1   8
TORSDOF 2
ENDMDL
MODEL 8
REMARK VINA RESULT:      -5.0     20.123     20.772
REMARK  2 active torsions:
REMARK  status: ('A' for Active; 'I' for Inactive)
REMARK    1  A    between atoms: C_1  and  C_2 
REMARK    2  A    between atoms: C_1  and  C_5 
ROOT
HETATM    1  C   UNK     0      -1.550  -7.909  -9.497  0.00  0.00     0.035 A 
HETATM    2  C   UNK     0      -1.875  -6.537  -8.876  0.00  0.00     0.120 A 
HETATM    3  N   UNK     0      -3.021  -5.684  -9.450  0.00  0.00    -0.296 NA
HETATM    4  C   UNK     0      -2.370  -8.426 -10.692  0.00  0.00     0.004 A 
HETATM    5  C   UNK     0      -3.517  -7.574 -11.267  0.00  0.00     0.024 A 
HETATM    6  C   UNK     0      -3.843  -6.202 -10.646  0.00  0.00     0.120 A 
HETATM    7  C   UNK     0      -4.337  -8.092 -12.462  0.00  0.00     0.002 C 
ENDROOT
BRANCH   1   8
HETATM    8  C   UNK     0      -0.403  -8.761  -8.922  0.00  0.00     0.100 C 
BRANCH   8   9
HETATM    9  C   UNK     0      -0.143 -10.229  -9.485  0.00  0.00     0.185 C 
HETATM   10  O   UNK     0       0.769 -10.321 -10.696  0.00  0.00    -0.647 OA
HETATM   11  O   UNK     0      -0.778 -11.445  -8.835  0.00  0.00    -0.647 OA
ENDBRANCH   8   9
ENDBRANCH   1   8
TORSDOF 2
ENDMDL
MODEL 9
REMARK VINA RESULT:      -5.0     26.728     27.099
REMARK  2 active torsions:
REMARK  status: ('A' for Active; 'I' for Inactive)
REMARK    1  A    between atoms: C_1  and  C_2 
REMARK    2  A    between atoms: C_1  and  C_5 
ROOT
HETATM    1  C   UNK     0     -10.244   2.835 -19.206  0.00  0.00     0.035 A 
HETATM    2  C   UNK     0      -9.124   3.842 -18.879  0.00  0.00     0.120 A 
HETATM    3  N   UNK     0      -8.487   3.857 -17.478  0.00  0.00    -0.296 NA
HETATM    4  C   UNK     0     -10.725   1.844 -18.131  0.00  0.00     0.004 A 
HETATM    5  C   UNK     0     -10.087   1.858 -16.729  0.00  0.00     0.024 A 
HETATM    6  C   UNK     0      -8.968   2.865 -16.402  0.00  0.00     0.120 A 
HETATM    7  C   UNK     0     -10.569   0.867 -15.654  0.00  0.00     0.002 C 
ENDROOT
BRANCH   1   8
HETATM    8  C   UNK     0     -10.881   2.821 -20.608  0.00  0.00     0.100 C 
BRANCH   8   9
HETATM    9  C   UNK     0     -11.862   3.996 -21.048  0.00  0.00     0.185 C 
HETATM   10  O   UNK     0     -13.179   3.560 -21.668  0.00  0.00    -0.647 OA
HETATM   11  O   UNK     0     -11.484   5.453 -20.851  0.00  0.00    -0.647 OA
ENDBRANCH   8   9
ENDBRANCH   1   8
TORSDOF 2
ENDMDL
MODEL 10
REMARK VINA RESULT:      -4.8     26.632     27.085
REMARK  2 active torsions:
REMARK  status: ('A' for Active; 'I' for Inactive)
REMARK    1  A    between atoms: C_1  and  C_2 
REMARK    2  A    between atoms: C_1  and  C_5 
ROOT
HETATM    1  C   UNK     0     -10.635   2.341 -19.295  0.00  0.00     0.035 A 
HETATM    2  C   UNK     0     -11.344   1.112 -18.696  0.00  0.00     0.120 A 
HETATM    3  N   UNK     0     -11.078   0.705 -17.236  0.00  0.00    -0.296 NA
HETATM    4  C   UNK     0      -9.659   3.162 -18.433  0.00  0.00     0.004 A 
HETATM    5  C   UNK     0      -9.392   2.756 -16.972  0.00  0.00     0.024 A 
HETATM    6  C   UNK     0     -10.102   1.527 -16.373  0.00  0.00     0.120 A 
HETATM    7  C   UNK     0      -8.417   3.577 -16.109  0.00  0.00     0.002 C 
ENDROOT
BRANCH   1   8
HETATM    8  C   UNK     0     -10.902   2.748 -20.756  0.00  0.00     0.100 C 
BRANCH   8   9
HETATM    9  C   UNK     0     -11.880   3.964 -21.078  0.00  0.00     0.185 C 
HETATM   10  O   UNK     0     -13.242   3.586 -21.637  0.00  0.00    -0.647 OA
HETATM   11  O   UNK     0     -11.458   5.401 -20.834  0.00  0.00    -0.647 OA
ENDBRANCH   8   9
ENDBRANCH   1   8
TORSDOF 2
ENDMDL
