MODEL 1
REMARK VINA RESULT:     -10.5      0.000      0.000
REMARK  3 active torsions:
REMARK  status: ('A' for Active; 'I' for Inactive)
REMARK    1  A    between atoms: C_16  and  C_21 
REMARK    2  A    between atoms: C_24  and  O_62 
REMARK    3  A    between atoms: C_34  and  O_35 
ROOT
HETATM    1  C   UNK     0     -25.386  -9.793  -0.539  0.00  0.00     0.018 A 
HETATM    2  C   UNK     0     -24.737  -8.939   0.566  0.00  0.00     0.166 A 
HETATM    3  C   UNK     0     -26.458  -9.178  -1.458  0.00  0.00     0.004 A 
HETATM    4  N   UNK     0     -25.162  -7.470   0.752  0.00  0.00    -0.347 N 
HETATM    5  C   UNK     0     -26.882  -7.710  -1.272  0.00  0.00     0.024 A 
HETATM    6  C   UNK     0     -26.233  -6.856  -0.166  0.00  0.00     0.099 A 
HETATM    7  C   UNK     0     -23.665  -9.553   1.485  0.00  0.00     0.281 C 
HETATM    8  O   UNK     0     -23.017  -8.699   2.590  0.00  0.00    -0.189 OA
HETATM    9  O   UNK     0     -23.440  -7.230   2.777  0.00  0.00    -0.196 OA
HETATM   10  C   UNK     0     -24.513  -6.616   1.858  0.00  0.00     0.265 A 
HETATM   11  C   UNK     0     -24.937  -5.147   2.045  0.00  0.00     0.231 A 
HETATM   12  O   UNK     0     -26.009  -4.532   1.126  0.00  0.00    -0.216 OA
HETATM   13  C   UNK     0     -22.168 -11.637   2.217  0.00  0.00     0.175 A 
HETATM   14  C   UNK     0     -21.520 -10.783   3.323  0.00  0.00     0.075 A 
HETATM   15  O   UNK     0     -23.241 -11.022   1.298  0.00  0.00    -0.336 OA
HETATM   16  C   UNK     0     -20.672 -13.720   2.950  0.00  0.00     0.065 A 
HETATM   17  O   UNK     0     -20.024 -12.866   4.055  0.00  0.00    -0.317 OA
HETATM   18  C   UNK     0     -21.745 -13.105   2.031  0.00  0.00    -0.008 A 
HETATM   19  C   UNK     0     -20.448 -11.396   4.242  0.00  0.00     0.072 A 
HETATM   20  C   UNK     0     -22.392 -13.960   0.926  0.00  0.00     0.030 C 
HETATM   21  O   UNK     0     -23.216  -4.906   4.069  0.00  0.00    -0.365 OA
HETATM   22  C   UNK     0     -24.289  -4.293   3.150  0.00  0.00     0.149 A 
HETATM   23  C   UNK     0     -22.569  -4.053   5.174  0.00  0.00     0.151 A 
HETATM   24  C   UNK     0     -22.992  -2.585   5.360  0.00  0.00     0.021 A 
HETATM   25  C   UNK     0     -24.713  -2.824   3.336  0.00  0.00     0.030 A 
HETATM   26  C   UNK     0     -24.065  -1.970   4.441  0.00  0.00     0.004 A 
HETATM   27  C   UNK     0     -21.496  -4.667   6.093  0.00  0.00     0.071 C 
HETATM   28  C   UNK     0     -20.848  -3.813   7.199  0.00  0.00     0.066 C 
HETATM   29  C   UNK     0     -19.351  -5.896   7.931  0.00  0.00     0.028 C 
HETATM   30  C   UNK     0     -19.775  -4.427   8.118  0.00  0.00    -0.025 C 
HETATM   31  C   UNK     0     -19.127  -3.573   9.223  0.00  0.00     0.028 C 
HETATM   32  C   UNK     0     -25.785  -2.210   2.417  0.00  0.00     0.003 C 
HETATM   33  C   UNK     0     -19.800 -10.542   5.347  0.00  0.00    -0.021 C 
HETATM   34  C   UNK     0     -20.223  -9.074   5.534  0.00  0.00     0.028 C 
HETATM   35  C   UNK     0     -18.727 -11.157   6.266  0.00  0.00     0.048 C 
HETATM   36  C   UNK     0     -18.079 -10.302   7.372  0.00  0.00    -0.012 C 
HETATM   37  C   UNK     0     -18.503  -8.833   7.558  0.00  0.00     0.029 C 
HETATM   38  C   UNK     0     -17.006 -10.917   8.291  0.00  0.00     0.148 C 
HETATM   39  C   UNK     0     -16.358 -10.063   9.396  0.00  0.00     0.144 A 
HETATM   40  O   UNK     0     -16.782  -8.594   9.582  0.00  0.00    -0.322 OA
HETATM   41  O   UNK     0     -16.582 -12.386   8.104  0.00  0.00    -0.189 OA
HETATM   42  C   UNK     0     -15.286 -10.678  10.315  0.00  0.00     0.151 A 
HETATM   43  C   UNK     0     -18.046  -4.158  10.165  0.00  0.00     0.030 C 
HETATM   44  C   UNK     0     -17.293  -3.166  11.449  0.00  0.00    -0.026 C 
HETATM   45  C   UNK     0     -14.638  -9.823  11.420  0.00  0.00     0.004 A 
HETATM   46  C   UNK     0     -15.099  -8.336  11.574  0.00  0.00     0.002 A 
HETATM   47  C   UNK     0     -16.134  -7.740  10.688  0.00  0.00     0.175 A 
HETATM   48  O   UNK     0     -14.862 -12.146  10.128  0.00  0.00    -0.188 OA
HETATM   49  C   UNK     0     -16.311  -3.745  12.283  0.00  0.00    -0.005 C 
HETATM   50  C   UNK     0     -15.952  -5.301  11.985  0.00  0.00    -0.005 C 
HETATM   51  C   UNK     0     -15.000  -6.626  12.451  0.00  0.00    -0.024 C 
HETATM   52  C   UNK     0     -13.582 -10.473  12.305  0.00  0.00     0.033 C 
HETATM   53  O   UNK     0     -23.916  -5.686   2.940  0.00  0.00     0.000 OA
HETATM   54  C   UNK     0     -14.016  -6.453  13.625  0.00  0.00     0.031 C 
ENDROOT
BRANCH  16  55
HETATM   55  C   UNK     0     -20.248 -15.189   2.763  0.00  0.00     0.072 A 
HETATM   56  C   UNK     0     -20.721 -16.259   3.764  0.00  0.00     0.007 A 
HETATM   57  C   UNK     0     -20.297 -17.728   3.578  0.00  0.00     0.056 A 
HETATM   58  C   UNK     0     -19.400 -18.127   2.391  0.00  0.00     0.127 A 
HETATM   59  C   UNK     0     -18.927 -17.056   1.390  0.00  0.00     0.093 A 
HETATM   60  O   UNK     0     -18.976 -19.595   2.205  0.00  0.00    -0.193 OA
HETATM   61  C   UNK     0     -19.351 -15.587   1.576  0.00  0.00     0.053 A 
BRANCH  59  62
HETATM   62  O   UNK     0     -18.030 -17.453   0.203  0.00  0.00    -0.331 OA
HETATM   63  C   UNK     0     -18.428 -17.054  -1.230  0.00  0.00     0.181 C 
ENDBRANCH  59  62
ENDBRANCH  16  55
BRANCH  28  64
HETATM   64  O   UNK     0     -21.272  -2.344   7.385  0.00  0.00    -0.333 OA
HETATM   65  C   UNK     0     -22.103  -1.933   8.613  0.00  0.00     0.181 C 
ENDBRANCH  28  64
TORSDOF 3
ENDMDL
MODEL 2
REMARK VINA RESULT:     -10.3     40.916     49.012
REMARK  3 active torsions:
REMARK  status: ('A' for Active; 'I' for Inactive)
REMARK    1  A    between atoms: C_16  and  C_21 
REMARK    2  A    between atoms: C_24  and  O_62 
REMARK    3  A    between atoms: C_34  and  O_35 
ROOT
HETATM    1  C   UNK     0     -20.537 -27.681 -33.641  0.00  0.00     0.018 A 
HETATM    2  C   UNK     0     -19.805 -28.322 -34.835  0.00  0.00     0.166 A 
HETATM    3  C   UNK     0     -21.743 -26.754 -33.885  0.00  0.00     0.004 A 
HETATM    4  N   UNK     0     -20.279 -28.037 -36.272  0.00  0.00    -0.347 N 
HETATM    5  C   UNK     0     -22.217 -26.470 -35.322  0.00  0.00     0.024 A 
HETATM    6  C   UNK     0     -21.485 -27.112 -36.516  0.00  0.00     0.099 A 
HETATM    7  C   UNK     0     -18.599 -29.249 -34.591  0.00  0.00     0.281 C 
HETATM    8  O   UNK     0     -17.867 -29.890 -35.784  0.00  0.00    -0.189 OA
HETATM    9  O   UNK     0     -18.341 -29.606 -37.222  0.00  0.00    -0.196 OA
HETATM   10  C   UNK     0     -19.547 -28.679 -37.465  0.00  0.00     0.265 A 
HETATM   11  C   UNK     0     -20.020 -28.395 -38.903  0.00  0.00     0.231 A 
HETATM   12  O   UNK     0     -21.226 -27.469 -39.148  0.00  0.00    -0.216 OA
HETATM   13  C   UNK     0     -16.918 -30.460 -32.909  0.00  0.00     0.175 A 
HETATM   14  C   UNK     0     -16.186 -31.101 -34.103  0.00  0.00     0.075 A 
HETATM   15  O   UNK     0     -18.125 -29.533 -33.153  0.00  0.00    -0.336 OA
HETATM   16  C   UNK     0     -15.239 -31.670 -31.228  0.00  0.00     0.065 A 
HETATM   17  O   UNK     0     -14.507 -32.312 -32.422  0.00  0.00    -0.317 OA
HETATM   18  C   UNK     0     -16.445 -30.744 -31.472  0.00  0.00    -0.008 A 
HETATM   19  C   UNK     0     -14.980 -32.027 -33.860  0.00  0.00     0.072 A 
HETATM   20  C   UNK     0     -17.176 -30.103 -30.278  0.00  0.00     0.030 C 
HETATM   21  O   UNK     0     -18.083 -29.962 -39.853  0.00  0.00    -0.365 OA
HETATM   22  C   UNK     0     -19.289 -29.036 -40.096  0.00  0.00     0.149 A 
HETATM   23  C   UNK     0     -17.351 -30.603 -41.046  0.00  0.00     0.151 A 
HETATM   24  C   UNK     0     -17.825 -30.319 -42.483  0.00  0.00     0.021 A 
HETATM   25  C   UNK     0     -19.763 -28.751 -41.534  0.00  0.00     0.030 A 
HETATM   26  C   UNK     0     -19.031 -29.393 -42.727  0.00  0.00     0.004 A 
HETATM   27  C   UNK     0     -16.145 -31.530 -40.802  0.00  0.00     0.071 C 
HETATM   28  C   UNK     0     -15.413 -32.172 -41.996  0.00  0.00     0.066 C 
HETATM   29  C   UNK     0     -13.732 -33.383 -40.315  0.00  0.00     0.028 C 
HETATM   30  C   UNK     0     -14.207 -33.098 -41.752  0.00  0.00    -0.025 C 
HETATM   31  C   UNK     0     -13.475 -33.739 -42.946  0.00  0.00     0.028 C 
HETATM   32  C   UNK     0     -20.969 -27.825 -41.777  0.00  0.00     0.003 C 
HETATM   33  C   UNK     0     -14.248 -32.669 -35.053  0.00  0.00    -0.021 C 
HETATM   34  C   UNK     0     -14.722 -32.385 -36.490  0.00  0.00     0.028 C 
HETATM   35  C   UNK     0     -13.042 -33.595 -34.809  0.00  0.00     0.048 C 
HETATM   36  C   UNK     0     -12.310 -34.237 -36.003  0.00  0.00    -0.012 C 
HETATM   37  C   UNK     0     -12.785 -33.952 -37.440  0.00  0.00     0.029 C 
HETATM   38  C   UNK     0     -11.104 -35.163 -35.759  0.00  0.00     0.148 C 
HETATM   39  C   UNK     0     -10.372 -35.804 -36.952  0.00  0.00     0.144 A 
HETATM   40  O   UNK     0     -10.846 -35.520 -38.390  0.00  0.00    -0.322 OA
HETATM   41  O   UNK     0     -10.630 -35.448 -34.321  0.00  0.00    -0.189 OA
HETATM   42  C   UNK     0      -9.166 -36.731 -36.708  0.00  0.00     0.151 A 
HETATM   43  C   UNK     0     -12.258 -34.676 -42.738  0.00  0.00     0.030 C 
HETATM   44  C   UNK     0     -11.408 -35.421 -44.124  0.00  0.00    -0.026 C 
HETATM   45  C   UNK     0      -8.434 -37.372 -37.901  0.00  0.00     0.004 A 
HETATM   46  C   UNK     0      -8.950 -37.055 -39.344  0.00  0.00     0.002 A 
HETATM   47  C   UNK     0     -10.114 -36.161 -39.583  0.00  0.00     0.175 A 
HETATM   48  O   UNK     0      -8.692 -37.015 -35.271  0.00  0.00    -0.188 OA
HETATM   49  C   UNK     0     -10.304 -36.268 -43.882  0.00  0.00    -0.005 C 
HETATM   50  C   UNK     0      -9.903 -36.488 -42.324  0.00  0.00    -0.005 C 
HETATM   51  C   UNK     0      -8.834 -37.259 -41.255  0.00  0.00    -0.024 C 
HETATM   52  C   UNK     0      -7.247 -38.281 -37.613  0.00  0.00     0.033 C 
HETATM   53  O   UNK     0     -18.872 -29.280 -38.721  0.00  0.00     0.000 OA
HETATM   54  C   UNK     0      -7.726 -38.157 -41.837  0.00  0.00     0.031 C 
ENDROOT
BRANCH  16  55
HETATM   55  C   UNK     0     -14.764 -31.955 -29.791  0.00  0.00     0.072 A 
HETATM   56  C   UNK     0     -15.582 -32.891 -28.882  0.00  0.00     0.007 A 
HETATM   57  C   UNK     0     -15.108 -33.176 -27.444  0.00  0.00     0.056 A 
HETATM   58  C   UNK     0     -13.816 -32.525 -26.916  0.00  0.00     0.127 A 
HETATM   59  C   UNK     0     -12.998 -31.588 -27.825  0.00  0.00     0.093 A 
HETATM   60  O   UNK     0     -13.343 -32.810 -25.479  0.00  0.00    -0.193 OA
HETATM   61  C   UNK     0     -13.473 -31.304 -29.262  0.00  0.00     0.053 A 
BRANCH  59  62
HETATM   62  O   UNK     0     -11.707 -30.937 -27.297  0.00  0.00    -0.331 OA
HETATM   63  C   UNK     0     -10.348 -31.306 -27.921  0.00  0.00     0.181 C 
ENDBRANCH  59  62
ENDBRANCH  16  55
BRANCH  28  64
HETATM   64  O   UNK     0     -15.887 -31.887 -43.434  0.00  0.00    -0.333 OA
HETATM   65  C   UNK     0     -15.023 -31.026 -44.373  0.00  0.00     0.181 C 
ENDBRANCH  28  64
TORSDOF 3
ENDMDL
MODEL 3
REMARK VINA RESULT:     -10.3     56.617     59.357
REMARK  3 active torsions:
REMARK  status: ('A' for Active; 'I' for Inactive)
REMARK    1  A    between atoms: C_16  and  C_21 
REMARK    2  A    between atoms: C_24  and  O_62 
REMARK    3  A    between atoms: C_34  and  O_35 
ROOT
HETATM    1  C   UNK     0      24.867  23.748 -13.836  0.00  0.00     0.018 A 
HETATM    2  C   UNK     0      23.585  24.421 -14.363  0.00  0.00     0.166 A 
HETATM    3  C   UNK     0      25.255  23.886 -12.352  0.00  0.00     0.004 A 
HETATM    4  N   UNK     0      22.692  25.232 -13.405  0.00  0.00    -0.347 N 
HETATM    5  C   UNK     0      24.362  24.697 -11.396  0.00  0.00     0.024 A 
HETATM    6  C   UNK     0      23.081  25.370 -11.922  0.00  0.00     0.099 A 
HETATM    7  C   UNK     0      23.197  24.283 -15.847  0.00  0.00     0.281 C 
HETATM    8  O   UNK     0      21.916  24.955 -16.373  0.00  0.00    -0.189 OA
HETATM    9  O   UNK     0      21.022  25.766 -15.416  0.00  0.00    -0.196 OA
HETATM   10  C   UNK     0      21.411  25.904 -13.933  0.00  0.00     0.265 A 
HETATM   11  C   UNK     0      20.517  26.715 -12.975  0.00  0.00     0.231 A 
HETATM   12  O   UNK     0      20.905  26.853 -11.491  0.00  0.00    -0.216 OA
HETATM   13  C   UNK     0      23.702  23.333 -18.289  0.00  0.00     0.175 A 
HETATM   14  C   UNK     0      22.421  24.006 -18.815  0.00  0.00     0.075 A 
HETATM   15  O   UNK     0      24.090  23.472 -16.805  0.00  0.00    -0.336 OA
HETATM   16  C   UNK     0      24.207  22.385 -20.730  0.00  0.00     0.065 A 
HETATM   17  O   UNK     0      22.926  23.057 -21.256  0.00  0.00    -0.317 OA
HETATM   18  C   UNK     0      24.595  22.523 -19.246  0.00  0.00    -0.008 A 
HETATM   19  C   UNK     0      22.032  23.869 -20.299  0.00  0.00     0.072 A 
HETATM   20  C   UNK     0      25.877  21.850 -18.720  0.00  0.00     0.030 C 
HETATM   21  O   UNK     0      18.847  27.250 -14.985  0.00  0.00    -0.365 OA
HETATM   22  C   UNK     0      19.236  27.387 -13.501  0.00  0.00     0.149 A 
HETATM   23  C   UNK     0      17.567  27.922 -15.511  0.00  0.00     0.151 A 
HETATM   24  C   UNK     0      16.674  28.733 -14.554  0.00  0.00     0.021 A 
HETATM   25  C   UNK     0      18.343  28.198 -12.544  0.00  0.00     0.030 A 
HETATM   26  C   UNK     0      17.062  28.871 -13.070  0.00  0.00     0.004 A 
HETATM   27  C   UNK     0      17.178  27.784 -16.995  0.00  0.00     0.071 C 
HETATM   28  C   UNK     0      15.896  28.457 -17.522  0.00  0.00     0.066 C 
HETATM   29  C   UNK     0      16.401  27.508 -19.964  0.00  0.00     0.028 C 
HETATM   30  C   UNK     0      15.508  28.319 -19.006  0.00  0.00    -0.025 C 
HETATM   31  C   UNK     0      14.226  28.991 -19.532  0.00  0.00     0.028 C 
HETATM   32  C   UNK     0      18.732  28.336 -11.060  0.00  0.00     0.003 C 
HETATM   33  C   UNK     0      20.750  24.541 -20.825  0.00  0.00    -0.021 C 
HETATM   34  C   UNK     0      19.857  25.352 -19.868  0.00  0.00     0.028 C 
HETATM   35  C   UNK     0      20.362  24.403 -22.309  0.00  0.00     0.048 C 
HETATM   36  C   UNK     0      19.080  25.076 -22.836  0.00  0.00    -0.012 C 
HETATM   37  C   UNK     0      18.187  25.886 -21.878  0.00  0.00     0.029 C 
HETATM   38  C   UNK     0      18.692  24.937 -24.320  0.00  0.00     0.148 C 
HETATM   39  C   UNK     0      17.411  25.610 -24.846  0.00  0.00     0.144 A 
HETATM   40  O   UNK     0      16.518  26.421 -23.889  0.00  0.00    -0.322 OA
HETATM   41  O   UNK     0      19.585  24.126 -25.278  0.00  0.00    -0.189 OA
HETATM   42  C   UNK     0      17.023  25.472 -26.330  0.00  0.00     0.151 A 
HETATM   43  C   UNK     0      13.805  28.874 -21.018  0.00  0.00     0.030 C 
HETATM   44  C   UNK     0      12.317  29.655 -21.630  0.00  0.00    -0.026 C 
HETATM   45  C   UNK     0      15.741  26.144 -26.857  0.00  0.00     0.004 A 
HETATM   46  C   UNK     0      14.864  26.958 -25.849  0.00  0.00     0.002 A 
HETATM   47  C   UNK     0      15.236  27.093 -24.415  0.00  0.00     0.175 A 
HETATM   48  O   UNK     0      17.916  24.661 -27.287  0.00  0.00    -0.188 OA
HETATM   49  C   UNK     0      11.976  29.518 -22.993  0.00  0.00    -0.005 C 
HETATM   50  C   UNK     0      12.998  28.639 -23.899  0.00  0.00    -0.005 C 
HETATM   51  C   UNK     0      13.319  28.035 -25.452  0.00  0.00    -0.024 C 
HETATM   52  C   UNK     0      15.397  25.981 -28.331  0.00  0.00     0.033 C 
HETATM   53  O   UNK     0      20.109  26.612 -14.374  0.00  0.00     0.000 OA
HETATM   54  C   UNK     0      12.334  28.363 -26.590  0.00  0.00     0.031 C 
ENDROOT
BRANCH  16  55
HETATM   55  C   UNK     0      25.100  21.574 -21.687  0.00  0.00     0.072 A 
HETATM   56  C   UNK     0      25.872  22.289 -22.812  0.00  0.00     0.007 A 
HETATM   57  C   UNK     0      26.765  21.478 -23.770  0.00  0.00     0.056 A 
HETATM   58  C   UNK     0      26.887  19.952 -23.603  0.00  0.00     0.127 A 
HETATM   59  C   UNK     0      26.115  19.237 -22.478  0.00  0.00     0.093 A 
HETATM   60  O   UNK     0      27.779  19.142 -24.560  0.00  0.00    -0.193 OA
HETATM   61  C   UNK     0      25.222  20.047 -21.521  0.00  0.00     0.053 A 
BRANCH  59  62
HETATM   62  O   UNK     0      26.237  17.711 -22.311  0.00  0.00    -0.331 OA
HETATM   63  C   UNK     0      25.271  16.775 -23.062  0.00  0.00     0.181 C 
ENDBRANCH  59  62
ENDBRANCH  16  55
BRANCH  28  64
HETATM   64  O   UNK     0      15.003  29.268 -16.564  0.00  0.00    -0.333 OA
HETATM   65  C   UNK     0      13.651  28.695 -16.103  0.00  0.00     0.181 C 
ENDBRANCH  28  64
TORSDOF 3
ENDMDL
MODEL 4
REMARK VINA RESULT:      -9.8     69.780     72.739
REMARK  3 active torsions:
REMARK  status: ('A' for Active; 'I' for Inactive)
REMARK    1  A    between atoms: C_16  and  C_21 
REMARK    2  A    between atoms: C_24  and  O_62 
REMARK    3  A    between atoms: C_34  and  O_35 
ROOT
HETATM    1  C   UNK     0      37.932   8.834 -22.779  0.00  0.00     0.018 A 
HETATM    2  C   UNK     0      37.885   8.152 -24.158  0.00  0.00     0.166 A 
HETATM    3  C   UNK     0      37.464   8.071 -21.525  0.00  0.00     0.004 A 
HETATM    4  N   UNK     0      37.369   6.706 -24.285  0.00  0.00    -0.347 N 
HETATM    5  C   UNK     0      36.948   6.626 -21.653  0.00  0.00     0.024 A 
HETATM    6  C   UNK     0      36.901   5.944 -23.032  0.00  0.00     0.099 A 
HETATM    7  C   UNK     0      38.354   8.915 -25.411  0.00  0.00     0.281 C 
HETATM    8  O   UNK     0      38.307   8.233 -26.791  0.00  0.00    -0.189 OA
HETATM    9  O   UNK     0      37.791   6.786 -26.919  0.00  0.00    -0.196 OA
HETATM   10  C   UNK     0      37.322   6.024 -25.665  0.00  0.00     0.265 A 
HETATM   11  C   UNK     0      36.806   4.578 -25.793  0.00  0.00     0.231 A 
HETATM   12  O   UNK     0      36.338   3.815 -24.539  0.00  0.00    -0.216 OA
HETATM   13  C   UNK     0      39.338  11.124 -26.538  0.00  0.00     0.175 A 
HETATM   14  C   UNK     0      39.291  10.442 -27.917  0.00  0.00     0.075 A 
HETATM   15  O   UNK     0      38.870  10.361 -25.285  0.00  0.00    -0.336 OA
HETATM   16  C   UNK     0      40.323  13.332 -27.664  0.00  0.00     0.065 A 
HETATM   17  O   UNK     0      40.275  12.650 -29.043  0.00  0.00    -0.317 OA
HETATM   18  C   UNK     0      39.854  12.569 -26.411  0.00  0.00    -0.008 A 
HETATM   19  C   UNK     0      39.759  11.204 -29.171  0.00  0.00     0.072 A 
HETATM   20  C   UNK     0      39.901  13.252 -25.031  0.00  0.00     0.030 C 
HETATM   21  O   UNK     0      37.228   4.658 -28.425  0.00  0.00    -0.365 OA
HETATM   22  C   UNK     0      36.759   3.896 -27.171  0.00  0.00     0.149 A 
HETATM   23  C   UNK     0      37.180   3.976 -29.804  0.00  0.00     0.151 A 
HETATM   24  C   UNK     0      36.665   2.531 -29.931  0.00  0.00     0.021 A 
HETATM   25  C   UNK     0      36.243   2.450 -27.298  0.00  0.00     0.030 A 
HETATM   26  C   UNK     0      36.196   1.768 -28.678  0.00  0.00     0.004 A 
HETATM   27  C   UNK     0      37.649   4.739 -31.057  0.00  0.00     0.071 C 
HETATM   28  C   UNK     0      37.602   4.056 -32.437  0.00  0.00     0.066 C 
HETATM   29  C   UNK     0      38.586   6.265 -33.564  0.00  0.00     0.028 C 
HETATM   30  C   UNK     0      38.070   4.820 -33.690  0.00  0.00    -0.025 C 
HETATM   31  C   UNK     0      38.023   4.137 -35.070  0.00  0.00     0.028 C 
HETATM   32  C   UNK     0      35.775   1.688 -26.045  0.00  0.00     0.003 C 
HETATM   33  C   UNK     0      39.712  10.521 -30.551  0.00  0.00    -0.021 C 
HETATM   34  C   UNK     0      39.197   9.076 -30.678  0.00  0.00     0.028 C 
HETATM   35  C   UNK     0      40.181  11.284 -31.804  0.00  0.00     0.048 C 
HETATM   36  C   UNK     0      40.134  10.602 -33.183  0.00  0.00    -0.012 C 
HETATM   37  C   UNK     0      39.618   9.156 -33.310  0.00  0.00     0.029 C 
HETATM   38  C   UNK     0      40.602  11.365 -34.437  0.00  0.00     0.148 C 
HETATM   39  C   UNK     0      40.555  10.683 -35.816  0.00  0.00     0.144 A 
HETATM   40  O   UNK     0      40.039   9.237 -35.943  0.00  0.00    -0.322 OA
HETATM   41  O   UNK     0      41.118  12.811 -34.310  0.00  0.00    -0.189 OA
HETATM   42  C   UNK     0      41.024  11.446 -37.069  0.00  0.00     0.151 A 
HETATM   43  C   UNK     0      38.486   4.874 -36.351  0.00  0.00     0.030 C 
HETATM   44  C   UNK     0      38.431   4.081 -37.954  0.00  0.00    -0.026 C 
HETATM   45  C   UNK     0      40.977  10.764 -38.449  0.00  0.00     0.004 A 
HETATM   46  C   UNK     0      40.445   9.294 -38.531  0.00  0.00     0.002 A 
HETATM   47  C   UNK     0      39.992   8.554 -37.323  0.00  0.00     0.175 A 
HETATM   48  O   UNK     0      41.539  12.891 -36.942  0.00  0.00    -0.188 OA
HETATM   49  C   UNK     0      38.865   4.796 -39.092  0.00  0.00    -0.005 C 
HETATM   50  C   UNK     0      39.386   6.311 -38.827  0.00  0.00    -0.005 C 
HETATM   51  C   UNK     0      40.012   7.716 -39.544  0.00  0.00    -0.024 C 
HETATM   52  C   UNK     0      41.450  11.556 -39.660  0.00  0.00     0.033 C 
HETATM   53  O   UNK     0      37.240   5.262 -27.009  0.00  0.00     0.000 OA
HETATM   54  C   UNK     0      40.244   7.729 -41.067  0.00  0.00     0.031 C 
ENDROOT
BRANCH  16  55
HETATM   55  C   UNK     0      40.838  14.778 -27.537  0.00  0.00     0.072 A 
HETATM   56  C   UNK     0      42.325  15.041 -27.231  0.00  0.00     0.007 A 
HETATM   57  C   UNK     0      42.841  16.487 -27.105  0.00  0.00     0.056 A 
HETATM   58  C   UNK     0      41.870  17.670 -27.284  0.00  0.00     0.127 A 
HETATM   59  C   UNK     0      40.384  17.407 -27.590  0.00  0.00     0.093 A 
HETATM   60  O   UNK     0      42.386  19.114 -27.157  0.00  0.00    -0.193 OA
HETATM   61  C   UNK     0      39.868  15.961 -27.716  0.00  0.00     0.053 A 
BRANCH  59  62
HETATM   62  O   UNK     0      39.414  18.588 -27.769  0.00  0.00    -0.331 OA
HETATM   63  C   UNK     0      38.024  18.356 -28.391  0.00  0.00     0.181 C 
ENDBRANCH  59  62
ENDBRANCH  16  55
BRANCH  28  64
HETATM   64  O   UNK     0      37.086   2.611 -32.564  0.00  0.00    -0.333 OA
HETATM   65  C   UNK     0      35.779   2.324 -33.324  0.00  0.00     0.181 C 
ENDBRANCH  28  64
TORSDOF 3
ENDMDL
MODEL 5
REMARK VINA RESULT:      -9.7     16.336     23.972
REMARK  3 active torsions:
REMARK  status: ('A' for Active; 'I' for Inactive)
REMARK    1  A    between atoms: C_16  and  C_21 
REMARK    2  A    between atoms: C_24  and  O_62 
REMARK    3  A    between atoms: C_34  and  O_35 
ROOT
HETATM    1  C   UNK     0     -33.031  -2.580  -7.326  0.00  0.00     0.018 A 
HETATM    2  C   UNK     0     -33.013  -4.117  -7.428  0.00  0.00     0.166 A 
HETATM    3  C   UNK     0     -33.095  -1.901  -5.945  0.00  0.00     0.004 A 
HETATM    4  N   UNK     0     -33.059  -4.974  -6.149  0.00  0.00    -0.347 N 
HETATM    5  C   UNK     0     -33.141  -2.758  -4.667  0.00  0.00     0.024 A 
HETATM    6  C   UNK     0     -33.123  -4.295  -4.769  0.00  0.00     0.099 A 
HETATM    7  C   UNK     0     -32.949  -4.796  -8.809  0.00  0.00     0.281 C 
HETATM    8  O   UNK     0     -32.931  -6.332  -8.911  0.00  0.00    -0.189 OA
HETATM    9  O   UNK     0     -32.977  -7.191  -7.632  0.00  0.00    -0.196 OA
HETATM   10  C   UNK     0     -33.041  -6.511  -6.252  0.00  0.00     0.265 A 
HETATM   11  C   UNK     0     -33.087  -7.369  -4.974  0.00  0.00     0.231 A 
HETATM   12  O   UNK     0     -33.151  -6.690  -3.593  0.00  0.00    -0.216 OA
HETATM   13  C   UNK     0     -32.838  -4.617 -11.469  0.00  0.00     0.175 A 
HETATM   14  C   UNK     0     -32.820  -6.154 -11.571  0.00  0.00     0.075 A 
HETATM   15  O   UNK     0     -32.903  -3.938 -10.088  0.00  0.00    -0.336 OA
HETATM   16  C   UNK     0     -32.728  -4.439 -14.127  0.00  0.00     0.065 A 
HETATM   17  O   UNK     0     -32.710  -5.976 -14.230  0.00  0.00    -0.317 OA
HETATM   18  C   UNK     0     -32.792  -3.760 -12.746  0.00  0.00    -0.008 A 
HETATM   19  C   UNK     0     -32.756  -6.834 -12.951  0.00  0.00     0.072 A 
HETATM   20  C   UNK     0     -32.810  -2.224 -12.645  0.00  0.00     0.030 C 
HETATM   21  O   UNK     0     -33.005  -9.585  -6.456  0.00  0.00    -0.365 OA
HETATM   22  C   UNK     0     -33.069  -8.904  -5.076  0.00  0.00     0.149 A 
HETATM   23  C   UNK     0     -32.987 -11.120  -6.558  0.00  0.00     0.151 A 
HETATM   24  C   UNK     0     -33.033 -11.977  -5.280  0.00  0.00     0.021 A 
HETATM   25  C   UNK     0     -33.115  -9.762  -3.797  0.00  0.00     0.030 A 
HETATM   26  C   UNK     0     -33.097 -11.298  -3.899  0.00  0.00     0.004 A 
HETATM   27  C   UNK     0     -32.923 -11.799  -7.939  0.00  0.00     0.071 C 
HETATM   28  C   UNK     0     -32.904 -13.337  -8.041  0.00  0.00     0.066 C 
HETATM   29  C   UNK     0     -32.794 -13.158 -10.701  0.00  0.00     0.028 C 
HETATM   30  C   UNK     0     -32.840 -14.016  -9.422  0.00  0.00    -0.025 C 
HETATM   31  C   UNK     0     -32.822 -15.552  -9.525  0.00  0.00     0.028 C 
HETATM   32  C   UNK     0     -33.180  -9.083  -2.417  0.00  0.00     0.003 C 
HETATM   33  C   UNK     0     -32.738  -8.371 -13.053  0.00  0.00    -0.021 C 
HETATM   34  C   UNK     0     -32.784  -9.228 -11.775  0.00  0.00     0.028 C 
HETATM   35  C   UNK     0     -32.674  -9.050 -14.434  0.00  0.00     0.048 C 
HETATM   36  C   UNK     0     -32.656 -10.586 -14.536  0.00  0.00    -0.012 C 
HETATM   37  C   UNK     0     -32.702 -11.444 -13.258  0.00  0.00     0.029 C 
HETATM   38  C   UNK     0     -32.591 -11.265 -15.917  0.00  0.00     0.148 C 
HETATM   39  C   UNK     0     -32.573 -12.802 -16.020  0.00  0.00     0.144 A 
HETATM   40  O   UNK     0     -32.619 -13.659 -14.741  0.00  0.00    -0.322 OA
HETATM   41  O   UNK     0     -32.545 -10.408 -17.196  0.00  0.00    -0.189 OA
HETATM   42  C   UNK     0     -32.509 -13.481 -17.401  0.00  0.00     0.151 A 
HETATM   43  C   UNK     0     -32.758 -16.269 -10.896  0.00  0.00     0.030 C 
HETATM   44  C   UNK     0     -32.737 -18.054 -11.015  0.00  0.00    -0.026 C 
HETATM   45  C   UNK     0     -32.491 -15.017 -17.503  0.00  0.00     0.004 A 
HETATM   46  C   UNK     0     -32.539 -15.849 -16.178  0.00  0.00     0.002 A 
HETATM   47  C   UNK     0     -32.601 -15.196 -14.843  0.00  0.00     0.175 A 
HETATM   48  O   UNK     0     -32.463 -12.624 -18.678  0.00  0.00    -0.188 OA
HETATM   49  C   UNK     0     -32.678 -18.660 -12.289  0.00  0.00    -0.005 C 
HETATM   50  C   UNK     0     -32.633 -17.648 -13.558  0.00  0.00    -0.005 C 
HETATM   51  C   UNK     0     -32.563 -17.535 -15.250  0.00  0.00    -0.024 C 
HETATM   52  C   UNK     0     -32.427 -15.645 -18.888  0.00  0.00     0.033 C 
HETATM   53  O   UNK     0     -33.027  -8.057  -6.261  0.00  0.00     0.000 OA
HETATM   54  C   UNK     0     -32.517 -18.834 -16.077  0.00  0.00     0.031 C 
ENDROOT
BRANCH  16  55
HETATM   55  C   UNK     0     -32.682  -3.582 -15.406  0.00  0.00     0.072 A 
HETATM   56  C   UNK     0     -31.326  -3.207 -16.033  0.00  0.00     0.007 A 
HETATM   57  C   UNK     0     -31.280  -2.350 -17.312  0.00  0.00     0.056 A 
HETATM   58  C   UNK     0     -32.589  -1.867 -17.964  0.00  0.00     0.127 A 
HETATM   59  C   UNK     0     -33.945  -2.242 -17.336  0.00  0.00     0.093 A 
HETATM   60  O   UNK     0     -32.543  -1.010 -19.242  0.00  0.00    -0.193 OA
HETATM   61  C   UNK     0     -33.991  -3.099 -16.058  0.00  0.00     0.053 A 
BRANCH  59  62
HETATM   62  O   UNK     0     -35.254  -1.759 -17.987  0.00  0.00    -0.331 OA
HETATM   63  C   UNK     0     -35.819  -2.494 -19.217  0.00  0.00     0.181 C 
ENDBRANCH  59  62
ENDBRANCH  16  55
BRANCH  28  64
HETATM   64  O   UNK     0     -32.951 -14.194  -6.763  0.00  0.00    -0.333 OA
HETATM   65  C   UNK     0     -31.696 -14.958  -6.303  0.00  0.00     0.181 C 
ENDBRANCH  28  64
TORSDOF 3
ENDMDL
MODEL 6
REMARK VINA RESULT:      -9.6     55.153     60.275
REMARK  3 active torsions:
REMARK  status: ('A' for Active; 'I' for Inactive)
REMARK    1  A    between atoms: C_16  and  C_21 
REMARK    2  A    between atoms: C_24  and  O_62 
REMARK    3  A    between atoms: C_34  and  O_35 
ROOT
HETATM    1  C   UNK     0      41.603  -2.347 -11.127  0.00  0.00     0.018 A 
HETATM    2  C   UNK     0      41.134  -3.246  -9.968  0.00  0.00     0.166 A 
HETATM    3  C   UNK     0      42.553  -2.909 -12.201  0.00  0.00     0.004 A 
HETATM    4  N   UNK     0      41.615  -4.707  -9.883  0.00  0.00    -0.347 N 
HETATM    5  C   UNK     0      43.035  -4.368 -12.115  0.00  0.00     0.024 A 
HETATM    6  C   UNK     0      42.566  -5.267 -10.956  0.00  0.00     0.099 A 
HETATM    7  C   UNK     0      40.183  -2.685  -8.894  0.00  0.00     0.281 C 
HETATM    8  O   UNK     0      39.714  -3.584  -7.735  0.00  0.00    -0.189 OA
HETATM    9  O   UNK     0      40.195  -5.045  -7.649  0.00  0.00    -0.196 OA
HETATM   10  C   UNK     0      41.146  -5.605  -8.723  0.00  0.00     0.265 A 
HETATM   11  C   UNK     0      41.628  -7.066  -8.637  0.00  0.00     0.231 A 
HETATM   12  O   UNK     0      42.578  -7.627  -9.711  0.00  0.00    -0.216 OA
HETATM   13  C   UNK     0      38.750  -0.663  -7.906  0.00  0.00     0.175 A 
HETATM   14  C   UNK     0      38.281  -1.562  -6.747  0.00  0.00     0.075 A 
HETATM   15  O   UNK     0      39.701  -1.224  -8.980  0.00  0.00    -0.336 OA
HETATM   16  C   UNK     0      37.318   1.359  -6.918  0.00  0.00     0.065 A 
HETATM   17  O   UNK     0      36.849   0.460  -5.759  0.00  0.00    -0.317 OA
HETATM   18  C   UNK     0      38.268   0.797  -7.992  0.00  0.00    -0.008 A 
HETATM   19  C   UNK     0      37.330  -1.001  -5.673  0.00  0.00     0.072 A 
HETATM   20  C   UNK     0      38.737   1.697  -9.151  0.00  0.00     0.030 C 
HETATM   21  O   UNK     0      40.208  -7.404  -6.405  0.00  0.00    -0.365 OA
HETATM   22  C   UNK     0      41.159  -7.964  -7.479  0.00  0.00     0.149 A 
HETATM   23  C   UNK     0      39.739  -8.302  -5.246  0.00  0.00     0.151 A 
HETATM   24  C   UNK     0      40.221  -9.762  -5.161  0.00  0.00     0.021 A 
HETATM   25  C   UNK     0      41.641  -9.425  -7.393  0.00  0.00     0.030 A 
HETATM   26  C   UNK     0      41.172 -10.324  -6.234  0.00  0.00     0.004 A 
HETATM   27  C   UNK     0      38.789  -7.741  -4.173  0.00  0.00     0.071 C 
HETATM   28  C   UNK     0      38.319  -8.640  -3.013  0.00  0.00     0.066 C 
HETATM   29  C   UNK     0      36.886  -6.618  -2.024  0.00  0.00     0.028 C 
HETATM   30  C   UNK     0      37.368  -8.079  -1.939  0.00  0.00    -0.025 C 
HETATM   31  C   UNK     0      36.899  -8.978  -0.780  0.00  0.00     0.028 C 
HETATM   32  C   UNK     0      42.591  -9.985  -8.467  0.00  0.00     0.003 C 
HETATM   33  C   UNK     0      36.861  -1.900  -4.514  0.00  0.00    -0.021 C 
HETATM   34  C   UNK     0      37.343  -3.360  -4.428  0.00  0.00     0.028 C 
HETATM   35  C   UNK     0      35.910  -1.339  -3.440  0.00  0.00     0.048 C 
HETATM   36  C   UNK     0      35.441  -2.238  -2.281  0.00  0.00    -0.012 C 
HETATM   37  C   UNK     0      35.923  -3.698  -2.196  0.00  0.00     0.029 C 
HETATM   38  C   UNK     0      34.490  -1.676  -1.207  0.00  0.00     0.148 C 
HETATM   39  C   UNK     0      34.021  -2.575  -0.048  0.00  0.00     0.144 A 
HETATM   40  O   UNK     0      34.503  -4.036   0.037  0.00  0.00    -0.322 OA
HETATM   41  O   UNK     0      34.008  -0.216  -1.293  0.00  0.00    -0.189 OA
HETATM   42  C   UNK     0      33.070  -2.014   1.026  0.00  0.00     0.151 A 
HETATM   43  C   UNK     0      35.944  -8.447   0.317  0.00  0.00     0.030 C 
HETATM   44  C   UNK     0      35.399  -9.491   1.664  0.00  0.00    -0.026 C 
HETATM   45  C   UNK     0      32.601  -2.913   2.185  0.00  0.00     0.004 A 
HETATM   46  C   UNK     0      33.116  -4.389   2.232  0.00  0.00     0.002 A 
HETATM   47  C   UNK     0      34.034  -4.935   1.196  0.00  0.00     0.175 A 
HETATM   48  O   UNK     0      32.589  -0.554   0.940  0.00  0.00    -0.188 OA
HETATM   49  C   UNK     0      34.527  -8.960   2.640  0.00  0.00    -0.005 C 
HETATM   50  C   UNK     0      34.092  -7.409   2.438  0.00  0.00    -0.005 C 
HETATM   51  C   UNK     0      33.180  -6.123   3.067  0.00  0.00    -0.024 C 
HETATM   52  C   UNK     0      31.662  -2.315   3.223  0.00  0.00     0.033 C 
HETATM   53  O   UNK     0      40.726  -6.577  -7.596  0.00  0.00     0.000 OA
HETATM   54  C   UNK     0      32.372  -6.352   4.358  0.00  0.00     0.031 C 
ENDROOT
BRANCH  16  55
HETATM   55  C   UNK     0      36.836   2.819  -7.003  0.00  0.00     0.072 A 
HETATM   56  C   UNK     0      35.500   3.150  -7.696  0.00  0.00     0.007 A 
HETATM   57  C   UNK     0      35.018   4.610  -7.781  0.00  0.00     0.056 A 
HETATM   58  C   UNK     0      35.872   5.740  -7.174  0.00  0.00     0.127 A 
HETATM   59  C   UNK     0      37.207   5.409  -6.482  0.00  0.00     0.093 A 
HETATM   60  O   UNK     0      35.390   7.199  -7.260  0.00  0.00    -0.193 OA
HETATM   61  C   UNK     0      37.689   3.949  -6.397  0.00  0.00     0.053 A 
BRANCH  59  62
HETATM   62  O   UNK     0      38.060   6.538  -5.875  0.00  0.00    -0.331 OA
HETATM   63  C   UNK     0      37.684   7.138  -4.508  0.00  0.00     0.181 C 
ENDBRANCH  59  62
ENDBRANCH  16  55
BRANCH  28  64
HETATM   64  O   UNK     0      38.801 -10.101  -2.927  0.00  0.00    -0.333 OA
HETATM   65  C   UNK     0      37.818 -11.253  -3.203  0.00  0.00     0.181 C 
ENDBRANCH  28  64
TORSDOF 3
ENDMDL
MODEL 7
REMARK VINA RESULT:      -9.5     67.077     70.995
REMARK  3 active torsions:
REMARK  status: ('A' for Active; 'I' for Inactive)
REMARK    1  A    between atoms: C_16  and  C_21 
REMARK    2  A    between atoms: C_24  and  O_62 
REMARK    3  A    between atoms: C_34  and  O_35 
ROOT
HETATM    1  C   UNK     0      38.730   7.088 -34.074  0.00  0.00     0.018 A 
HETATM    2  C   UNK     0      38.615   5.694 -34.717  0.00  0.00     0.166 A 
HETATM    3  C   UNK     0      39.154   8.298 -34.928  0.00  0.00     0.004 A 
HETATM    4  N   UNK     0      38.925   5.509 -36.215  0.00  0.00    -0.347 N 
HETATM    5  C   UNK     0      39.464   8.113 -36.424  0.00  0.00     0.024 A 
HETATM    6  C   UNK     0      39.349   6.718 -37.068  0.00  0.00     0.099 A 
HETATM    7  C   UNK     0      38.191   4.484 -33.863  0.00  0.00     0.281 C 
HETATM    8  O   UNK     0      38.076   3.090 -34.506  0.00  0.00    -0.189 OA
HETATM    9  O   UNK     0      38.386   2.904 -36.004  0.00  0.00    -0.196 OA
HETATM   10  C   UNK     0      38.810   4.114 -36.857  0.00  0.00     0.265 A 
HETATM   11  C   UNK     0      39.120   3.928 -38.355  0.00  0.00     0.231 A 
HETATM   12  O   UNK     0      39.544   5.138 -39.209  0.00  0.00    -0.216 OA
HETATM   13  C   UNK     0      37.457   3.460 -31.512  0.00  0.00     0.175 A 
HETATM   14  C   UNK     0      37.342   2.065 -32.155  0.00  0.00     0.075 A 
HETATM   15  O   UNK     0      37.881   4.669 -32.366  0.00  0.00    -0.336 OA
HETATM   16  C   UNK     0      36.723   2.436 -29.161  0.00  0.00     0.065 A 
HETATM   17  O   UNK     0      36.608   1.041 -29.804  0.00  0.00    -0.317 OA
HETATM   18  C   UNK     0      37.147   3.645 -30.015  0.00  0.00    -0.008 A 
HETATM   19  C   UNK     0      36.918   0.855 -31.302  0.00  0.00     0.072 A 
HETATM   20  C   UNK     0      37.261   5.039 -29.371  0.00  0.00     0.030 C 
HETATM   21  O   UNK     0      38.581   1.325 -38.145  0.00  0.00    -0.365 OA
HETATM   22  C   UNK     0      39.006   2.535 -38.998  0.00  0.00     0.149 A 
HETATM   23  C   UNK     0      38.467  -0.069 -38.788  0.00  0.00     0.151 A 
HETATM   24  C   UNK     0      38.777  -0.254 -40.284  0.00  0.00     0.021 A 
HETATM   25  C   UNK     0      39.315   2.350 -40.495  0.00  0.00     0.030 A 
HETATM   26  C   UNK     0      39.201   0.955 -41.138  0.00  0.00     0.004 A 
HETATM   27  C   UNK     0      38.043  -1.279 -37.934  0.00  0.00     0.071 C 
HETATM   28  C   UNK     0      37.928  -2.674 -38.578  0.00  0.00     0.066 C 
HETATM   29  C   UNK     0      37.194  -3.698 -36.226  0.00  0.00     0.028 C 
HETATM   30  C   UNK     0      37.504  -3.883 -37.724  0.00  0.00    -0.025 C 
HETATM   31  C   UNK     0      37.389  -5.278 -38.367  0.00  0.00     0.028 C 
HETATM   32  C   UNK     0      39.740   3.559 -41.348  0.00  0.00     0.003 C 
HETATM   33  C   UNK     0      36.803  -0.539 -31.945  0.00  0.00    -0.021 C 
HETATM   34  C   UNK     0      37.113  -0.725 -33.442  0.00  0.00     0.028 C 
HETATM   35  C   UNK     0      36.379  -1.749 -31.091  0.00  0.00     0.048 C 
HETATM   36  C   UNK     0      36.265  -3.143 -31.735  0.00  0.00    -0.012 C 
HETATM   37  C   UNK     0      36.574  -3.328 -33.232  0.00  0.00     0.029 C 
HETATM   38  C   UNK     0      35.840  -4.353 -30.881  0.00  0.00     0.148 C 
HETATM   39  C   UNK     0      35.726  -5.747 -31.524  0.00  0.00     0.144 A 
HETATM   40  O   UNK     0      36.035  -5.932 -33.021  0.00  0.00    -0.322 OA
HETATM   41  O   UNK     0      35.530  -4.168 -29.383  0.00  0.00    -0.189 OA
HETATM   42  C   UNK     0      35.301  -6.957 -30.670  0.00  0.00     0.151 A 
HETATM   43  C   UNK     0      36.965  -6.516 -37.539  0.00  0.00     0.030 C 
HETATM   44  C   UNK     0      36.832  -8.136 -38.286  0.00  0.00    -0.026 C 
HETATM   45  C   UNK     0      35.187  -8.351 -31.313  0.00  0.00     0.004 A 
HETATM   46  C   UNK     0      35.511  -8.493 -32.837  0.00  0.00     0.002 A 
HETATM   47  C   UNK     0      35.921  -7.327 -33.665  0.00  0.00     0.175 A 
HETATM   48  O   UNK     0      34.992  -6.771 -29.173  0.00  0.00    -0.188 OA
HETATM   49  C   UNK     0      36.442  -9.234 -37.489  0.00  0.00    -0.005 C 
HETATM   50  C   UNK     0      36.143  -8.909 -35.926  0.00  0.00    -0.005 C 
HETATM   51  C   UNK     0      35.676  -9.561 -34.430  0.00  0.00    -0.024 C 
HETATM   52  C   UNK     0      34.764  -9.518 -30.431  0.00  0.00     0.033 C 
HETATM   53  O   UNK     0      38.721   2.752 -37.585  0.00  0.00     0.000 OA
HETATM   54  C   UNK     0      35.372 -11.069 -34.343  0.00  0.00     0.031 C 
ENDROOT
BRANCH  16  55
HETATM   55  C   UNK     0      36.413   2.621 -27.664  0.00  0.00     0.072 A 
HETATM   56  C   UNK     0      34.991   3.004 -27.213  0.00  0.00     0.007 A 
HETATM   57  C   UNK     0      34.681   3.189 -25.716  0.00  0.00     0.056 A 
HETATM   58  C   UNK     0      35.793   2.991 -24.669  0.00  0.00     0.127 A 
HETATM   59  C   UNK     0      37.215   2.607 -25.119  0.00  0.00     0.093 A 
HETATM   60  O   UNK     0      35.483   3.175 -23.172  0.00  0.00    -0.193 OA
HETATM   61  C   UNK     0      37.525   2.422 -26.616  0.00  0.00     0.053 A 
BRANCH  59  62
HETATM   62  O   UNK     0      38.327   2.409 -24.073  0.00  0.00    -0.331 OA
HETATM   63  C   UNK     0      38.350   1.136 -23.205  0.00  0.00     0.181 C 
ENDBRANCH  59  62
ENDBRANCH  16  55
BRANCH  28  64
HETATM   64  O   UNK     0      38.238  -2.859 -40.075  0.00  0.00    -0.333 OA
HETATM   65  C   UNK     0      37.094  -3.119 -41.071  0.00  0.00     0.181 C 
ENDBRANCH  28  64
TORSDOF 3
ENDMDL
MODEL 8
REMARK VINA RESULT:      -9.5     59.924     64.789
REMARK  3 active torsions:
REMARK  status: ('A' for Active; 'I' for Inactive)
REMARK    1  A    between atoms: C_16  and  C_21 
REMARK    2  A    between atoms: C_24  and  O_62 
REMARK    3  A    between atoms: C_34  and  O_35 
ROOT
HETATM    1  C   UNK     0       9.478 -36.415 -38.797  0.00  0.00     0.018 A 
HETATM    2  C   UNK     0       9.435 -35.803 -40.209  0.00  0.00     0.166 A 
HETATM    3  C   UNK     0       8.309 -37.287 -38.300  0.00  0.00     0.004 A 
HETATM    4  N   UNK     0       8.224 -36.063 -41.125  0.00  0.00    -0.347 N 
HETATM    5  C   UNK     0       7.099 -37.547 -39.215  0.00  0.00     0.024 A 
HETATM    6  C   UNK     0       7.057 -36.935 -40.628  0.00  0.00     0.099 A 
HETATM    7  C   UNK     0      10.603 -34.931 -40.706  0.00  0.00     0.281 C 
HETATM    8  O   UNK     0      10.561 -34.319 -42.119  0.00  0.00    -0.189 OA
HETATM    9  O   UNK     0       9.350 -34.579 -43.035  0.00  0.00    -0.196 OA
HETATM   10  C   UNK     0       8.182 -35.451 -42.537  0.00  0.00     0.265 A 
HETATM   11  C   UNK     0       6.971 -35.711 -43.454  0.00  0.00     0.231 A 
HETATM   12  O   UNK     0       5.803 -36.583 -42.957  0.00  0.00    -0.216 OA
HETATM   13  C   UNK     0      12.982 -33.798 -40.287  0.00  0.00     0.175 A 
HETATM   14  C   UNK     0      12.940 -33.186 -41.700  0.00  0.00     0.075 A 
HETATM   15  O   UNK     0      11.814 -34.670 -39.790  0.00  0.00    -0.336 OA
HETATM   16  C   UNK     0      15.361 -32.666 -39.869  0.00  0.00     0.065 A 
HETATM   17  O   UNK     0      15.318 -32.054 -41.281  0.00  0.00    -0.317 OA
HETATM   18  C   UNK     0      14.192 -33.538 -39.372  0.00  0.00    -0.008 A 
HETATM   19  C   UNK     0      14.107 -32.314 -42.198  0.00  0.00     0.072 A 
HETATM   20  C   UNK     0      14.236 -34.150 -37.959  0.00  0.00     0.030 C 
HETATM   21  O   UNK     0       8.096 -34.227 -45.363  0.00  0.00    -0.365 OA
HETATM   22  C   UNK     0       6.929 -35.099 -44.865  0.00  0.00     0.149 A 
HETATM   23  C   UNK     0       8.053 -33.615 -46.775  0.00  0.00     0.151 A 
HETATM   24  C   UNK     0       6.843 -33.875 -47.691  0.00  0.00     0.021 A 
HETATM   25  C   UNK     0       5.718 -35.359 -45.781  0.00  0.00     0.030 A 
HETATM   26  C   UNK     0       5.675 -34.748 -47.194  0.00  0.00     0.004 A 
HETATM   27  C   UNK     0       9.222 -32.743 -47.272  0.00  0.00     0.071 C 
HETATM   28  C   UNK     0       9.179 -32.131 -48.685  0.00  0.00     0.066 C 
HETATM   29  C   UNK     0      11.558 -30.998 -48.267  0.00  0.00     0.028 C 
HETATM   30  C   UNK     0      10.347 -31.258 -49.182  0.00  0.00    -0.025 C 
HETATM   31  C   UNK     0      10.304 -30.647 -50.595  0.00  0.00     0.028 C 
HETATM   32  C   UNK     0       4.551 -36.231 -45.284  0.00  0.00     0.003 C 
HETATM   33  C   UNK     0      14.064 -31.702 -43.610  0.00  0.00    -0.021 C 
HETATM   34  C   UNK     0      12.854 -31.962 -44.526  0.00  0.00     0.028 C 
HETATM   35  C   UNK     0      15.232 -30.830 -44.107  0.00  0.00     0.048 C 
HETATM   36  C   UNK     0      15.190 -30.218 -45.520  0.00  0.00    -0.012 C 
HETATM   37  C   UNK     0      13.979 -30.478 -46.435  0.00  0.00     0.029 C 
HETATM   38  C   UNK     0      16.358 -29.345 -46.017  0.00  0.00     0.148 C 
HETATM   39  C   UNK     0      16.315 -28.734 -47.429  0.00  0.00     0.144 A 
HETATM   40  O   UNK     0      15.104 -28.994 -48.345  0.00  0.00    -0.322 OA
HETATM   41  O   UNK     0      17.569 -29.085 -45.101  0.00  0.00    -0.189 OA
HETATM   42  C   UNK     0      17.484 -27.861 -47.926  0.00  0.00     0.151 A 
HETATM   43  C   UNK     0      11.461 -29.765 -51.127  0.00  0.00     0.030 C 
HETATM   44  C   UNK     0      11.411 -29.054 -52.768  0.00  0.00    -0.026 C 
HETATM   45  C   UNK     0      17.441 -27.249 -49.339  0.00  0.00     0.004 A 
HETATM   46  C   UNK     0      16.192 -27.540 -50.235  0.00  0.00     0.002 A 
HETATM   47  C   UNK     0      15.062 -28.382 -49.757  0.00  0.00     0.175 A 
HETATM   48  O   UNK     0      18.694 -27.601 -47.011  0.00  0.00    -0.188 OA
HETATM   49  C   UNK     0      12.491 -28.257 -53.208  0.00  0.00    -0.005 C 
HETATM   50  C   UNK     0      13.707 -28.057 -52.150  0.00  0.00    -0.005 C 
HETATM   51  C   UNK     0      15.220 -27.337 -51.884  0.00  0.00    -0.024 C 
HETATM   52  C   UNK     0      18.618 -26.394 -49.787  0.00  0.00     0.033 C 
HETATM   53  O   UNK     0       8.056 -34.877 -43.968  0.00  0.00     0.000 OA
HETATM   54  C   UNK     0      15.842 -26.486 -53.008  0.00  0.00     0.031 C 
ENDROOT
BRANCH  16  55
HETATM   55  C   UNK     0      16.571 -32.406 -38.953  0.00  0.00     0.072 A 
HETATM   56  C   UNK     0      17.762 -33.382 -38.955  0.00  0.00     0.007 A 
HETATM   57  C   UNK     0      18.973 -33.122 -38.040  0.00  0.00     0.056 A 
HETATM   58  C   UNK     0      18.993 -31.885 -37.122  0.00  0.00     0.127 A 
HETATM   59  C   UNK     0      17.802 -30.909 -37.120  0.00  0.00     0.093 A 
HETATM   60  O   UNK     0      20.204 -31.625 -36.207  0.00  0.00    -0.193 OA
HETATM   61  C   UNK     0      16.592 -31.169 -38.035  0.00  0.00     0.053 A 
BRANCH  59  62
HETATM   62  O   UNK     0      17.822 -29.672 -36.202  0.00  0.00    -0.331 OA
HETATM   63  C   UNK     0      18.120 -28.281 -36.792  0.00  0.00     0.181 C 
ENDBRANCH  59  62
ENDBRANCH  16  55
BRANCH  28  64
HETATM   64  O   UNK     0       7.968 -32.391 -49.601  0.00  0.00    -0.333 OA
HETATM   65  C   UNK     0       6.934 -31.277 -49.845  0.00  0.00     0.181 C 
ENDBRANCH  28  64
TORSDOF 3
ENDMDL
MODEL 9
REMARK VINA RESULT:      -9.5     70.040     72.684
REMARK  3 active torsions:
REMARK  status: ('A' for Active; 'I' for Inactive)
REMARK    1  A    between atoms: C_16  and  C_21 
REMARK    2  A    between atoms: C_24  and  O_62 
REMARK    3  A    between atoms: C_34  and  O_35 
ROOT
HETATM    1  C   UNK     0      36.547   4.549 -24.666  0.00  0.00     0.018 A 
HETATM    2  C   UNK     0      36.944   4.976 -26.092  0.00  0.00     0.166 A 
HETATM    3  C   UNK     0      35.902   3.171 -24.426  0.00  0.00     0.004 A 
HETATM    4  N   UNK     0      36.694   4.025 -27.278  0.00  0.00    -0.347 N 
HETATM    5  C   UNK     0      35.652   2.221 -25.612  0.00  0.00     0.024 A 
HETATM    6  C   UNK     0      36.049   2.648 -27.037  0.00  0.00     0.099 A 
HETATM    7  C   UNK     0      37.589   6.353 -26.332  0.00  0.00     0.281 C 
HETATM    8  O   UNK     0      37.986   6.780 -27.757  0.00  0.00    -0.189 OA
HETATM    9  O   UNK     0      37.737   5.829 -28.944  0.00  0.00    -0.196 OA
HETATM   10  C   UNK     0      37.091   4.452 -28.703  0.00  0.00     0.265 A 
HETATM   11  C   UNK     0      36.842   3.502 -29.889  0.00  0.00     0.231 A 
HETATM   12  O   UNK     0      36.196   2.124 -29.650  0.00  0.00    -0.216 OA
HETATM   13  C   UNK     0      38.485   8.682 -25.386  0.00  0.00     0.175 A 
HETATM   14  C   UNK     0      38.881   9.108 -26.812  0.00  0.00     0.075 A 
HETATM   15  O   UNK     0      37.839   7.304 -25.146  0.00  0.00    -0.336 OA
HETATM   16  C   UNK     0      39.380  11.009 -24.441  0.00  0.00     0.065 A 
HETATM   17  O   UNK     0      39.776  11.436 -25.866  0.00  0.00    -0.317 OA
HETATM   18  C   UNK     0      38.734   9.632 -24.201  0.00  0.00    -0.008 A 
HETATM   19  C   UNK     0      39.527  10.485 -27.053  0.00  0.00     0.072 A 
HETATM   20  C   UNK     0      38.338   9.206 -22.775  0.00  0.00     0.030 C 
HETATM   21  O   UNK     0      37.883   5.305 -31.555  0.00  0.00    -0.365 OA
HETATM   22  C   UNK     0      37.238   3.928 -31.314  0.00  0.00     0.149 A 
HETATM   23  C   UNK     0      38.279   5.731 -32.980  0.00  0.00     0.151 A 
HETATM   24  C   UNK     0      38.030   4.781 -34.165  0.00  0.00     0.021 A 
HETATM   25  C   UNK     0      36.988   2.977 -32.500  0.00  0.00     0.030 A 
HETATM   26  C   UNK     0      37.385   3.404 -33.926  0.00  0.00     0.004 A 
HETATM   27  C   UNK     0      38.925   7.109 -33.220  0.00  0.00     0.071 C 
HETATM   28  C   UNK     0      39.322   7.536 -34.647  0.00  0.00     0.066 C 
HETATM   29  C   UNK     0      40.217   9.864 -33.701  0.00  0.00     0.028 C 
HETATM   30  C   UNK     0      39.968   8.913 -34.887  0.00  0.00    -0.025 C 
HETATM   31  C   UNK     0      40.364   9.340 -36.312  0.00  0.00     0.028 C 
HETATM   32  C   UNK     0      36.343   1.600 -32.260  0.00  0.00     0.003 C 
HETATM   33  C   UNK     0      39.923  10.912 -28.479  0.00  0.00    -0.021 C 
HETATM   34  C   UNK     0      39.674   9.962 -29.664  0.00  0.00     0.028 C 
HETATM   35  C   UNK     0      40.569  12.290 -28.718  0.00  0.00     0.048 C 
HETATM   36  C   UNK     0      40.965  12.716 -30.144  0.00  0.00    -0.012 C 
HETATM   37  C   UNK     0      40.716  11.765 -31.330  0.00  0.00     0.029 C 
HETATM   38  C   UNK     0      41.611  14.094 -30.384  0.00  0.00     0.148 C 
HETATM   39  C   UNK     0      42.008  14.521 -31.810  0.00  0.00     0.144 A 
HETATM   40  O   UNK     0      41.758  13.570 -32.995  0.00  0.00    -0.322 OA
HETATM   41  O   UNK     0      41.861  15.045 -29.198  0.00  0.00    -0.189 OA
HETATM   42  C   UNK     0      42.653  15.898 -32.050  0.00  0.00     0.151 A 
HETATM   43  C   UNK     0      41.015  10.717 -36.591  0.00  0.00     0.030 C 
HETATM   44  C   UNK     0      41.476  11.213 -38.247  0.00  0.00    -0.026 C 
HETATM   45  C   UNK     0      43.050  16.325 -33.475  0.00  0.00     0.004 A 
HETATM   46  C   UNK     0      42.778  15.327 -34.650  0.00  0.00     0.002 A 
HETATM   47  C   UNK     0      42.154  13.996 -34.421  0.00  0.00     0.175 A 
HETATM   48  O   UNK     0      42.902  16.848 -30.864  0.00  0.00    -0.188 OA
HETATM   49  C   UNK     0      42.067  12.480 -38.449  0.00  0.00    -0.005 C 
HETATM   50  C   UNK     0      42.277  13.388 -37.119  0.00  0.00    -0.005 C 
HETATM   51  C   UNK     0      42.846  14.870 -36.518  0.00  0.00    -0.024 C 
HETATM   52  C   UNK     0      43.685  17.695 -33.665  0.00  0.00     0.033 C 
HETATM   53  O   UNK     0      37.457   4.798 -30.165  0.00  0.00     0.000 OA
HETATM   54  C   UNK     0      43.442  15.889 -37.507  0.00  0.00     0.031 C 
ENDROOT
BRANCH  16  55
HETATM   55  C   UNK     0      39.629  11.960 -23.255  0.00  0.00     0.072 A 
HETATM   56  C   UNK     0      40.782  11.681 -22.273  0.00  0.00     0.007 A 
HETATM   57  C   UNK     0      41.032  12.632 -21.087  0.00  0.00     0.056 A 
HETATM   58  C   UNK     0      40.128  13.862 -20.883  0.00  0.00     0.127 A 
HETATM   59  C   UNK     0      38.975  14.142 -21.865  0.00  0.00     0.093 A 
HETATM   60  O   UNK     0      40.378  14.812 -19.698  0.00  0.00    -0.193 OA
HETATM   61  C   UNK     0      38.726  13.191 -23.051  0.00  0.00     0.053 A 
BRANCH  59  62
HETATM   62  O   UNK     0      38.072  15.372 -21.662  0.00  0.00    -0.331 OA
HETATM   63  C   UNK     0      36.545  15.198 -21.566  0.00  0.00     0.181 C 
ENDBRANCH  59  62
ENDBRANCH  16  55
BRANCH  28  64
HETATM   64  O   UNK     0      39.072   6.585 -35.832  0.00  0.00    -0.333 OA
HETATM   65  C   UNK     0      37.935   6.878 -36.827  0.00  0.00     0.181 C 
ENDBRANCH  28  64
TORSDOF 3
ENDMDL
MODEL 10
REMARK VINA RESULT:      -9.4     60.039     64.837
REMARK  3 active torsions:
REMARK  status: ('A' for Active; 'I' for Inactive)
REMARK    1  A    between atoms: C_16  and  C_21 
REMARK    2  A    between atoms: C_24  and  O_62 
REMARK    3  A    between atoms: C_34  and  O_35 
ROOT
HETATM    1  C   UNK     0      18.090 -27.649 -47.597  0.00  0.00     0.018 A 
HETATM    2  C   UNK     0      16.745 -28.398 -47.618  0.00  0.00     0.166 A 
HETATM    3  C   UNK     0      18.521 -26.805 -48.812  0.00  0.00     0.004 A 
HETATM    4  N   UNK     0      15.831 -28.305 -48.854  0.00  0.00    -0.347 N 
HETATM    5  C   UNK     0      17.607 -26.712 -50.047  0.00  0.00     0.024 A 
HETATM    6  C   UNK     0      16.262 -27.462 -50.068  0.00  0.00     0.099 A 
HETATM    7  C   UNK     0      16.315 -29.242 -46.403  0.00  0.00     0.281 C 
HETATM    8  O   UNK     0      14.970 -29.992 -46.425  0.00  0.00    -0.189 OA
HETATM    9  O   UNK     0      14.054 -29.899 -47.660  0.00  0.00    -0.196 OA
HETATM   10  C   UNK     0      14.486 -29.055 -48.874  0.00  0.00     0.265 A 
HETATM   11  C   UNK     0      13.571 -28.962 -50.110  0.00  0.00     0.231 A 
HETATM   12  O   UNK     0      14.001 -28.118 -51.325  0.00  0.00    -0.216 OA
HETATM   13  C   UNK     0      16.799 -30.179 -43.953  0.00  0.00     0.175 A 
HETATM   14  C   UNK     0      15.454 -30.929 -43.974  0.00  0.00     0.075 A 
HETATM   15  O   UNK     0      17.229 -29.336 -45.167  0.00  0.00    -0.336 OA
HETATM   16  C   UNK     0      17.282 -31.116 -41.503  0.00  0.00     0.065 A 
HETATM   17  O   UNK     0      15.937 -31.866 -41.524  0.00  0.00    -0.317 OA
HETATM   18  C   UNK     0      17.713 -30.272 -42.718  0.00  0.00    -0.008 A 
HETATM   19  C   UNK     0      15.022 -31.772 -42.760  0.00  0.00     0.072 A 
HETATM   20  C   UNK     0      19.058 -29.523 -42.696  0.00  0.00     0.030 C 
HETATM   21  O   UNK     0      11.795 -30.555 -48.918  0.00  0.00    -0.365 OA
HETATM   22  C   UNK     0      12.227 -29.711 -50.131  0.00  0.00     0.149 A 
HETATM   23  C   UNK     0      10.451 -31.304 -48.939  0.00  0.00     0.151 A 
HETATM   24  C   UNK     0       9.537 -31.211 -50.174  0.00  0.00     0.021 A 
HETATM   25  C   UNK     0      11.312 -29.617 -51.367  0.00  0.00     0.030 A 
HETATM   26  C   UNK     0       9.967 -30.367 -51.388  0.00  0.00     0.004 A 
HETATM   27  C   UNK     0      10.020 -32.147 -47.724  0.00  0.00     0.071 C 
HETATM   28  C   UNK     0       8.675 -32.898 -47.745  0.00  0.00     0.066 C 
HETATM   29  C   UNK     0       9.158 -33.835 -45.294  0.00  0.00     0.028 C 
HETATM   30  C   UNK     0       8.244 -33.741 -46.530  0.00  0.00    -0.025 C 
HETATM   31  C   UNK     0       6.899 -34.491 -46.551  0.00  0.00     0.028 C 
HETATM   32  C   UNK     0      11.743 -28.774 -52.581  0.00  0.00     0.003 C 
HETATM   33  C   UNK     0      13.677 -32.522 -42.781  0.00  0.00    -0.021 C 
HETATM   34  C   UNK     0      12.763 -32.429 -44.016  0.00  0.00     0.028 C 
HETATM   35  C   UNK     0      13.246 -33.366 -41.566  0.00  0.00     0.048 C 
HETATM   36  C   UNK     0      11.901 -34.115 -41.588  0.00  0.00    -0.012 C 
HETATM   37  C   UNK     0      10.987 -34.022 -42.823  0.00  0.00     0.029 C 
HETATM   38  C   UNK     0      11.471 -34.959 -40.373  0.00  0.00     0.148 C 
HETATM   39  C   UNK     0      10.126 -35.709 -40.394  0.00  0.00     0.144 A 
HETATM   40  O   UNK     0       9.211 -35.615 -41.630  0.00  0.00    -0.322 OA
HETATM   41  O   UNK     0      12.385 -35.052 -39.137  0.00  0.00    -0.189 OA
HETATM   42  C   UNK     0       9.695 -36.552 -39.179  0.00  0.00     0.151 A 
HETATM   43  C   UNK     0       6.434 -35.348 -45.348  0.00  0.00     0.030 C 
HETATM   44  C   UNK     0       4.871 -36.219 -45.373  0.00  0.00    -0.026 C 
HETATM   45  C   UNK     0       8.350 -37.302 -39.200  0.00  0.00     0.004 A 
HETATM   46  C   UNK     0       7.453 -37.179 -40.476  0.00  0.00     0.002 A 
HETATM   47  C   UNK     0       7.867 -36.365 -41.651  0.00  0.00     0.175 A 
HETATM   48  O   UNK     0      10.610 -36.645 -37.944  0.00  0.00    -0.188 OA
HETATM   49  C   UNK     0       4.492 -36.988 -44.251  0.00  0.00    -0.005 C 
HETATM   50  C   UNK     0       5.542 -37.006 -43.012  0.00  0.00    -0.005 C 
HETATM   51  C   UNK     0       5.850 -37.602 -41.453  0.00  0.00    -0.024 C 
HETATM   52  C   UNK     0       7.966 -38.123 -37.977  0.00  0.00     0.033 C 
HETATM   53  O   UNK     0      13.121 -29.774 -48.982  0.00  0.00     0.000 OA
HETATM   54  C   UNK     0       4.803 -38.520 -40.793  0.00  0.00     0.031 C 
ENDROOT
BRANCH  16  55
HETATM   55  C   UNK     0      18.197 -31.209 -40.267  0.00  0.00     0.072 A 
HETATM   56  C   UNK     0      19.258 -32.322 -40.177  0.00  0.00     0.007 A 
HETATM   57  C   UNK     0      20.172 -32.415 -38.941  0.00  0.00     0.056 A 
HETATM   58  C   UNK     0      20.025 -31.397 -37.795  0.00  0.00     0.127 A 
HETATM   59  C   UNK     0      18.964 -30.284 -37.885  0.00  0.00     0.093 A 
HETATM   60  O   UNK     0      20.940 -31.491 -36.560  0.00  0.00    -0.193 OA
HETATM   61  C   UNK     0      18.050 -30.191 -39.121  0.00  0.00     0.053 A 
BRANCH  59  62
HETATM   62  O   UNK     0      18.817 -29.266 -36.740  0.00  0.00    -0.331 OA
HETATM   63  C   UNK     0      18.899 -27.757 -37.037  0.00  0.00     0.181 C 
ENDBRANCH  59  62
ENDBRANCH  16  55
BRANCH  28  64
HETATM   64  O   UNK     0       7.760 -32.804 -48.981  0.00  0.00    -0.333 OA
HETATM   65  C   UNK     0       6.490 -31.936 -48.935  0.00  0.00     0.181 C 
ENDBRANCH  28  64
TORSDOF 3
ENDMDL
