MODEL 1
REMARK VINA RESULT:      -4.7      0.000      0.000
REMARK  5 active torsions:
REMARK  status: ('A' for Active; 'I' for Inactive)
REMARK    1  A    between atoms: C_2  and  C_3 
REMARK    2  A    between atoms: C_3  and  C_4 
REMARK    3  A    between atoms: C_4  and  C_8 
REMARK    4  A    between atoms: C_4  and  C_5 
REMARK    5  A    between atoms: C_6  and  C_8 
ROOT
HETATM    1  C   UNK     0      -2.399  -7.841  -9.491  0.00  0.00     0.087 C 
ENDROOT
BRANCH   1   2
HETATM    2  C   UNK     0      -0.952  -8.217  -9.118  0.00  0.00     0.011 C 
BRANCH   2   3
HETATM    3  C   UNK     0      -0.460  -9.664  -9.306  0.00  0.00     0.001 C 
HETATM    4  C   UNK     0       0.196 -10.088 -10.633  0.00  0.00     0.000 C 
ENDBRANCH   2   3
ENDBRANCH   1   2
BRANCH   1   5
HETATM    5  C   UNK     0      -3.423  -8.945  -9.812  0.00  0.00     0.011 C 
BRANCH   5   6
HETATM    6  C   UNK     0      -3.476  -9.560 -11.223  0.00  0.00     0.001 C 
HETATM    7  C   UNK     0      -4.309  -8.882 -12.327  0.00  0.00     0.000 C 
ENDBRANCH   5   6
ENDBRANCH   1   5
BRANCH   1   8
HETATM    8  C   UNK     0      -2.819  -6.361  -9.543  0.00  0.00     0.185 C 
HETATM    9  O   UNK     0      -3.613  -5.828 -10.752  0.00  0.00    -0.647 OA
HETATM   10  O   UNK     0      -2.448  -5.413  -8.388  0.00  0.00    -0.647 OA
ENDBRANCH   1   8
TORSDOF 5
ENDMDL
MODEL 2
REMARK VINA RESULT:      -4.7      0.490      3.090
REMARK  5 active torsions:
REMARK  status: ('A' for Active; 'I' for Inactive)
REMARK    1  A    between atoms: C_2  and  C_3 
REMARK    2  A    between atoms: C_3  and  C_4 
REMARK    3  A    between atoms: C_4  and  C_8 
REMARK    4  A    between atoms: C_4  and  C_5 
REMARK    5  A    between atoms: C_6  and  C_8 
ROOT
HETATM    1  C   UNK     0      -2.593  -7.790  -9.560  0.00  0.00     0.087 C 
ENDROOT
BRANCH   1   2
HETATM    2  C   UNK     0      -3.588  -8.936  -9.825  0.00  0.00     0.011 C 
BRANCH   2   3
HETATM    3  C   UNK     0      -3.999  -9.282 -11.269  0.00  0.00     0.001 C 
HETATM    4  C   UNK     0      -3.123  -8.822 -12.449  0.00  0.00     0.000 C 
ENDBRANCH   2   3
ENDBRANCH   1   2
BRANCH   1   5
HETATM    5  C   UNK     0      -1.105  -8.103  -9.321  0.00  0.00     0.011 C 
BRANCH   5   6
HETATM    6  C   UNK     0      -0.591  -9.549  -9.453  0.00  0.00     0.001 C 
HETATM    7  C   UNK     0       0.067 -10.016 -10.765  0.00  0.00     0.000 C 
ENDBRANCH   5   6
ENDBRANCH   1   5
BRANCH   1   8
HETATM    8  C   UNK     0      -3.087  -6.333  -9.535  0.00  0.00     0.185 C 
HETATM    9  O   UNK     0      -2.547  -5.355  -8.475  0.00  0.00    -0.647 OA
HETATM   10  O   UNK     0      -4.122  -5.852 -10.570  0.00  0.00    -0.647 OA
ENDBRANCH   1   8
TORSDOF 5
ENDMDL
MODEL 3
REMARK VINA RESULT:      -4.2     23.448     24.891
REMARK  5 active torsions:
REMARK  status: ('A' for Active; 'I' for Inactive)
REMARK    1  A    between atoms: C_2  and  C_3 
REMARK    2  A    between atoms: C_3  and  C_4 
REMARK    3  A    between atoms: C_4  and  C_8 
REMARK    4  A    between atoms: C_4  and  C_5 
REMARK    5  A    between atoms: C_6  and  C_8 
ROOT
HETATM    1  C   UNK     0      18.968  -1.584 -19.883  0.00  0.00     0.087 C 
ENDROOT
BRANCH   1   2
HETATM    2  C   UNK     0      18.351  -0.419 -20.680  0.00  0.00     0.011 C 
BRANCH   2   3
HETATM    3  C   UNK     0      19.135   0.896 -20.853  0.00  0.00     0.001 C 
HETATM    4  C   UNK     0      19.562   1.705 -19.616  0.00  0.00     0.000 C 
ENDBRANCH   2   3
ENDBRANCH   1   2
BRANCH   1   5
HETATM    5  C   UNK     0      18.523  -1.844 -18.432  0.00  0.00     0.011 C 
BRANCH   5   6
HETATM    6  C   UNK     0      17.461  -0.940 -17.778  0.00  0.00     0.001 C 
HETATM    7  C   UNK     0      17.877   0.080 -16.701  0.00  0.00     0.000 C 
ENDBRANCH   5   6
ENDBRANCH   1   5
BRANCH   1   8
HETATM    8  C   UNK     0      20.028  -2.488 -20.537  0.00  0.00     0.185 C 
HETATM    9  O   UNK     0      19.972  -4.014 -20.333  0.00  0.00    -0.647 OA
HETATM   10  O   UNK     0      21.146  -1.867 -21.395  0.00  0.00    -0.647 OA
ENDBRANCH   1   8
TORSDOF 5
ENDMDL
MODEL 4
REMARK VINA RESULT:      -4.1     34.235     34.967
REMARK  5 active torsions:
REMARK  status: ('A' for Active; 'I' for Inactive)
REMARK    1  A    between atoms: C_2  and  C_3 
REMARK    2  A    between atoms: C_3  and  C_4 
REMARK    3  A    between atoms: C_4  and  C_8 
REMARK    4  A    between atoms: C_4  and  C_5 
REMARK    5  A    between atoms: C_6  and  C_8 
ROOT
HETATM    1  C   UNK     0      16.768  13.475 -29.435  0.00  0.00     0.087 C 
ENDROOT
BRANCH   1   2
HETATM    2  C   UNK     0      16.685  14.450 -28.246  0.00  0.00     0.011 C 
BRANCH   2   3
HETATM    3  C   UNK     0      17.974  15.028 -27.632  0.00  0.00     0.001 C 
HETATM    4  C   UNK     0      17.895  15.943 -26.396  0.00  0.00     0.000 C 
ENDBRANCH   2   3
ENDBRANCH   1   2
BRANCH   1   5
HETATM    5  C   UNK     0      18.125  12.870 -29.841  0.00  0.00     0.011 C 
BRANCH   5   6
HETATM    6  C   UNK     0      18.246  12.055 -31.143  0.00  0.00     0.001 C 
HETATM    7  C   UNK     0      18.599  10.557 -31.084  0.00  0.00     0.000 C 
ENDBRANCH   5   6
ENDBRANCH   1   5
BRANCH   1   8
HETATM    8  C   UNK     0      15.495  13.105 -30.218  0.00  0.00     0.185 C 
HETATM    9  O   UNK     0      14.791  14.164 -31.087  0.00  0.00    -0.647 OA
HETATM   10  O   UNK     0      14.925  11.677 -30.131  0.00  0.00    -0.647 OA
ENDBRANCH   1   8
TORSDOF 5
ENDMDL
MODEL 5
REMARK VINA RESULT:      -4.1     23.860     24.988
REMARK  5 active torsions:
REMARK  status: ('A' for Active; 'I' for Inactive)
REMARK    1  A    between atoms: C_2  and  C_3 
REMARK    2  A    between atoms: C_3  and  C_4 
REMARK    3  A    between atoms: C_4  and  C_8 
REMARK    4  A    between atoms: C_4  and  C_5 
REMARK    5  A    between atoms: C_6  and  C_8 
ROOT
HETATM    1  C   UNK     0      18.647  -1.612 -20.091  0.00  0.00     0.087 C 
ENDROOT
BRANCH   1   2
HETATM    2  C   UNK     0      17.639  -0.998 -21.080  0.00  0.00     0.011 C 
BRANCH   2   3
HETATM    3  C   UNK     0      18.050   0.202 -21.954  0.00  0.00     0.001 C 
HETATM    4  C   UNK     0      18.278   0.011 -23.465  0.00  0.00     0.000 C 
ENDBRANCH   2   3
ENDBRANCH   1   2
BRANCH   1   5
HETATM    5  C   UNK     0      18.468  -1.398 -18.577  0.00  0.00     0.011 C 
BRANCH   5   6
HETATM    6  C   UNK     0      18.010  -0.028 -18.042  0.00  0.00     0.001 C 
HETATM    7  C   UNK     0      18.810   1.242 -18.390  0.00  0.00     0.000 C 
ENDBRANCH   5   6
ENDBRANCH   1   5
BRANCH   1   8
HETATM    8  C   UNK     0      19.833  -2.441 -20.617  0.00  0.00     0.185 C 
HETATM    9  O   UNK     0      20.977  -1.749 -21.382  0.00  0.00    -0.647 OA
HETATM   10  O   UNK     0      19.877  -3.961 -20.377  0.00  0.00    -0.647 OA
ENDBRANCH   1   8
TORSDOF 5
ENDMDL
MODEL 6
REMARK VINA RESULT:      -4.1     23.972     25.369
REMARK  5 active torsions:
REMARK  status: ('A' for Active; 'I' for Inactive)
REMARK    1  A    between atoms: C_2  and  C_3 
REMARK    2  A    between atoms: C_3  and  C_4 
REMARK    3  A    between atoms: C_4  and  C_8 
REMARK    4  A    between atoms: C_4  and  C_5 
REMARK    5  A    between atoms: C_6  and  C_8 
ROOT
HETATM    1  C   UNK     0      19.040   0.004 -20.304  0.00  0.00     0.087 C 
ENDROOT
BRANCH   1   2
HETATM    2  C   UNK     0      19.536   1.419 -19.950  0.00  0.00     0.011 C 
BRANCH   2   3
HETATM    3  C   UNK     0      18.763   2.654 -20.450  0.00  0.00     0.001 C 
HETATM    4  C   UNK     0      17.739   2.511 -21.590  0.00  0.00     0.000 C 
ENDBRANCH   2   3
ENDBRANCH   1   2
BRANCH   1   5
HETATM    5  C   UNK     0      18.000  -0.694 -19.407  0.00  0.00     0.011 C 
BRANCH   5   6
HETATM    6  C   UNK     0      18.464  -1.580 -18.236  0.00  0.00     0.001 C 
HETATM    7  C   UNK     0      19.171  -2.919 -18.517  0.00  0.00     0.000 C 
ENDBRANCH   5   6
ENDBRANCH   1   5
BRANCH   1   8
HETATM    8  C   UNK     0      19.583  -0.712 -21.554  0.00  0.00     0.185 C 
HETATM    9  O   UNK     0      20.860  -1.569 -21.456  0.00  0.00    -0.647 OA
HETATM   10  O   UNK     0      18.851  -0.571 -22.901  0.00  0.00    -0.647 OA
ENDBRANCH   1   8
TORSDOF 5
ENDMDL
MODEL 7
REMARK VINA RESULT:      -4.1     23.185     24.592
REMARK  5 active torsions:
REMARK  status: ('A' for Active; 'I' for Inactive)
REMARK    1  A    between atoms: C_2  and  C_3 
REMARK    2  A    between atoms: C_3  and  C_4 
REMARK    3  A    between atoms: C_4  and  C_8 
REMARK    4  A    between atoms: C_4  and  C_5 
REMARK    5  A    between atoms: C_6  and  C_8 
ROOT
HETATM    1  C   UNK     0      18.826  -1.421 -20.081  0.00  0.00     0.087 C 
ENDROOT
BRANCH   1   2
HETATM    2  C   UNK     0      18.419  -0.095 -20.752  0.00  0.00     0.011 C 
BRANCH   2   3
HETATM    3  C   UNK     0      17.570  -0.111 -22.037  0.00  0.00     0.001 C 
HETATM    4  C   UNK     0      18.255  -0.025 -23.413  0.00  0.00     0.000 C 
ENDBRANCH   2   3
ENDBRANCH   1   2
BRANCH   1   5
HETATM    5  C   UNK     0      18.050  -1.932 -18.854  0.00  0.00     0.011 C 
BRANCH   5   6
HETATM    6  C   UNK     0      16.819  -2.838 -19.044  0.00  0.00     0.001 C 
HETATM    7  C   UNK     0      16.399  -3.280 -20.458  0.00  0.00     0.000 C 
ENDBRANCH   5   6
ENDBRANCH   1   5
BRANCH   1   8
HETATM    8  C   UNK     0      20.009  -2.233 -20.638  0.00  0.00     0.185 C 
HETATM    9  O   UNK     0      20.131  -3.735 -20.316  0.00  0.00    -0.647 OA
HETATM   10  O   UNK     0      21.071  -1.546 -21.516  0.00  0.00    -0.647 OA
ENDBRANCH   1   8
TORSDOF 5
ENDMDL
MODEL 8
REMARK VINA RESULT:      -4.1     23.587     25.098
REMARK  5 active torsions:
REMARK  status: ('A' for Active; 'I' for Inactive)
REMARK    1  A    between atoms: C_2  and  C_3 
REMARK    2  A    between atoms: C_3  and  C_4 
REMARK    3  A    between atoms: C_4  and  C_8 
REMARK    4  A    between atoms: C_4  and  C_5 
REMARK    5  A    between atoms: C_6  and  C_8 
ROOT
HETATM    1  C   UNK     0      -6.327  -4.783 -34.711  0.00  0.00     0.087 C 
ENDROOT
BRANCH   1   2
HETATM    2  C   UNK     0      -6.566  -6.303 -34.770  0.00  0.00     0.011 C 
BRANCH   2   3
HETATM    3  C   UNK     0      -6.848  -7.090 -33.477  0.00  0.00     0.001 C 
HETATM    4  C   UNK     0      -8.299  -7.392 -33.061  0.00  0.00     0.000 C 
ENDBRANCH   2   3
ENDBRANCH   1   2
BRANCH   1   5
HETATM    5  C   UNK     0      -6.429  -4.040 -33.366  0.00  0.00     0.011 C 
BRANCH   5   6
HETATM    6  C   UNK     0      -7.805  -3.601 -32.831  0.00  0.00     0.001 C 
HETATM    7  C   UNK     0      -8.329  -4.167 -31.498  0.00  0.00     0.000 C 
ENDBRANCH   5   6
ENDBRANCH   1   5
BRANCH   1   8
HETATM    8  C   UNK     0      -5.985  -4.007 -35.995  0.00  0.00     0.185 C 
HETATM    9  O   UNK     0      -5.712  -2.492 -35.930  0.00  0.00    -0.647 OA
HETATM   10  O   UNK     0      -5.916  -4.744 -37.346  0.00  0.00    -0.647 OA
ENDBRANCH   1   8
TORSDOF 5
ENDMDL
MODEL 9
REMARK VINA RESULT:      -4.1     24.875     25.970
REMARK  5 active torsions:
REMARK  status: ('A' for Active; 'I' for Inactive)
REMARK    1  A    between atoms: C_2  and  C_3 
REMARK    2  A    between atoms: C_3  and  C_4 
REMARK    3  A    between atoms: C_4  and  C_8 
REMARK    4  A    between atoms: C_4  and  C_5 
REMARK    5  A    between atoms: C_6  and  C_8 
ROOT
HETATM    1  C   UNK     0      18.569   3.220 -20.633  0.00  0.00     0.087 C 
ENDROOT
BRANCH   1   2
HETATM    2  C   UNK     0      19.023   2.275 -19.505  0.00  0.00     0.011 C 
BRANCH   2   3
HETATM    3  C   UNK     0      18.035   1.869 -18.395  0.00  0.00     0.001 C 
HETATM    4  C   UNK     0      18.338   0.653 -17.502  0.00  0.00     0.000 C 
ENDBRANCH   2   3
ENDBRANCH   1   2
BRANCH   1   5
HETATM    5  C   UNK     0      17.706   2.680 -21.789  0.00  0.00     0.011 C 
BRANCH   5   6
HETATM    6  C   UNK     0      18.380   2.120 -23.056  0.00  0.00     0.001 C 
HETATM    7  C   UNK     0      18.059   0.690 -23.530  0.00  0.00     0.000 C 
ENDBRANCH   5   6
ENDBRANCH   1   5
BRANCH   1   8
HETATM    8  C   UNK     0      18.977   4.704 -20.605  0.00  0.00     0.185 C 
HETATM    9  O   UNK     0      19.149   5.480 -21.924  0.00  0.00    -0.647 OA
HETATM   10  O   UNK     0      19.213   5.412 -19.258  0.00  0.00    -0.647 OA
ENDBRANCH   1   8
TORSDOF 5
ENDMDL
MODEL 10
REMARK VINA RESULT:      -4.0     23.552     24.985
REMARK  5 active torsions:
REMARK  status: ('A' for Active; 'I' for Inactive)
REMARK    1  A    between atoms: C_2  and  C_3 
REMARK    2  A    between atoms: C_3  and  C_4 
REMARK    3  A    between atoms: C_4  and  C_8 
REMARK    4  A    between atoms: C_4  and  C_5 
REMARK    5  A    between atoms: C_6  and  C_8 
ROOT
HETATM    1  C   UNK     0      -6.254  -4.140 -34.403  0.00  0.00     0.087 C 
ENDROOT
BRANCH   1   2
HETATM    2  C   UNK     0      -7.348  -3.425 -33.588  0.00  0.00     0.011 C 
BRANCH   2   3
HETATM    3  C   UNK     0      -7.377  -3.560 -32.054  0.00  0.00     0.001 C 
HETATM    4  C   UNK     0      -8.523  -4.329 -31.370  0.00  0.00     0.000 C 
ENDBRANCH   2   3
ENDBRANCH   1   2
BRANCH   1   5
HETATM    5  C   UNK     0      -5.461  -5.302 -33.775  0.00  0.00     0.011 C 
BRANCH   5   6
HETATM    6  C   UNK     0      -6.118  -6.686 -33.617  0.00  0.00     0.001 C 
HETATM    7  C   UNK     0      -7.579  -6.899 -34.054  0.00  0.00     0.000 C 
ENDBRANCH   5   6
ENDBRANCH   1   5
BRANCH   1   8
HETATM    8  C   UNK     0      -5.953  -3.693 -35.845  0.00  0.00     0.185 C 
HETATM    9  O   UNK     0      -6.216  -4.655 -37.020  0.00  0.00    -0.647 OA
HETATM   10  O   UNK     0      -5.390  -2.286 -36.114  0.00  0.00    -0.647 OA
ENDBRANCH   1   8
TORSDOF 5
ENDMDL
