MODEL 1
REMARK VINA RESULT:      -7.9      0.000      0.000
REMARK  4 active torsions:
REMARK  status: ('A' for Active; 'I' for Inactive)
REMARK    1  A    between atoms: C_2  and  C_16 
REMARK    2  A    between atoms: C_16  and  C_17 
REMARK    3  A    between atoms: C_17  and  C_18 
REMARK    4  A    between atoms: C_18  and  C_19 
ROOT
HETATM    1  C   UNK     0     115.593  89.049 125.335  0.00  0.00    -0.026 A 
HETATM    2  C   UNK     0     117.118  88.990 125.105  0.00  0.00    -0.041 A 
HETATM    3  C   UNK     0     117.825  90.132 124.332  0.00  0.00     0.076 A 
HETATM    4  C   UNK     0     117.007  91.319 123.796  0.00  0.00     0.109 A 
HETATM    5  C   UNK     0     114.778  90.240 124.796  0.00  0.00     0.067 A 
HETATM    6  C   UNK     0     115.494  91.372 124.027  0.00  0.00     0.003 A 
HETATM    7  C   UNK     0     112.446  91.500 124.480  0.00  0.00    -0.030 A 
HETATM    8  C   UNK     0     113.162  92.632 123.711  0.00  0.00    -0.031 A 
HETATM    9  C   UNK     0     114.693  92.557 123.490  0.00  0.00    -0.028 A 
HETATM   10  C   UNK     0     115.417  93.679 122.725  0.00  0.00     0.026 A 
HETATM   11  C   UNK     0     114.618  94.885 122.175  0.00  0.00     0.005 A 
HETATM   12  C   UNK     0     113.087  94.961 122.396  0.00  0.00     0.005 A 
HETATM   13  C   UNK     0     112.356  93.830 123.167  0.00  0.00     0.026 A 
HETATM   14  C   UNK     0     115.344  96.007 121.410  0.00  0.00     0.000 C 
HETATM   15  O   UNK     0     117.708  92.454 123.028  0.00  0.00    -0.195 OA
HETATM   16  C   UNK     0     113.255  90.306 125.021  0.00  0.00    -0.022 A 
HETATM   17  C   UNK     0     110.925  91.565 124.705  0.00  0.00     0.030 C 
HETATM   18  O   UNK     0     114.063  89.116 125.560  0.00  0.00     0.000 OA
ENDROOT
BRANCH   2  19
HETATM   19  C   UNK     0     117.935  87.800 125.643  0.00  0.00     0.022 C 
BRANCH  19  20
HETATM   20  C   UNK     0     119.095  87.224 124.810  0.00  0.00     0.004 C 
BRANCH  20  21
HETATM   21  C   UNK     0     119.754  85.895 125.223  0.00  0.00     0.000 C 
BRANCH  21  22
HETATM   22  C   UNK     0     119.737  85.454 126.698  0.00  0.00     0.000 C 
HETATM   23  C   UNK     0     119.767  83.956 127.055  0.00  0.00     0.000 C 
ENDBRANCH  21  22
ENDBRANCH  20  21
ENDBRANCH  19  20
ENDBRANCH   2  19
TORSDOF 4
ENDMDL
MODEL 2
REMARK VINA RESULT:      -7.8     37.543     40.250
REMARK  4 active torsions:
REMARK  status: ('A' for Active; 'I' for Inactive)
REMARK    1  A    between atoms: C_2  and  C_16 
REMARK    2  A    between atoms: C_16  and  C_17 
REMARK    3  A    between atoms: C_17  and  C_18 
REMARK    4  A    between atoms: C_18  and  C_19 
ROOT
HETATM    1  C   UNK     0     145.585 113.722 106.521  0.00  0.00    -0.026 A 
HETATM    2  C   UNK     0     145.780 112.499 107.442  0.00  0.00    -0.041 A 
HETATM    3  C   UNK     0     144.856 112.306 108.672  0.00  0.00     0.076 A 
HETATM    4  C   UNK     0     143.750 113.331 108.970  0.00  0.00     0.109 A 
HETATM    5  C   UNK     0     144.475 114.746 106.825  0.00  0.00     0.067 A 
HETATM    6  C   UNK     0     143.561 114.543 108.054  0.00  0.00     0.003 A 
HETATM    7  C   UNK     0     143.162 116.990 106.220  0.00  0.00    -0.030 A 
HETATM    8  C   UNK     0     142.248 116.786 107.448  0.00  0.00    -0.031 A 
HETATM    9  C   UNK     0     142.458 115.554 108.362  0.00  0.00    -0.028 A 
HETATM   10  C   UNK     0     141.553 115.341 109.588  0.00  0.00     0.026 A 
HETATM   11  C   UNK     0     140.432 116.357 109.912  0.00  0.00     0.005 A 
HETATM   12  C   UNK     0     140.221 117.590 108.999  0.00  0.00     0.005 A 
HETATM   13  C   UNK     0     141.133 117.806 107.762  0.00  0.00     0.026 A 
HETATM   14  C   UNK     0     139.527 116.143 111.140  0.00  0.00     0.000 C 
HETATM   15  O   UNK     0     142.832 113.140 110.192  0.00  0.00    -0.195 OA
HETATM   16  C   UNK     0     144.274 115.970 105.910  0.00  0.00    -0.022 A 
HETATM   17  C   UNK     0     142.962 118.212 105.306  0.00  0.00     0.030 C 
HETATM   18  O   UNK     0     145.382 114.951 105.604  0.00  0.00     0.000 OA
ENDROOT
BRANCH   2  19
HETATM   19  C   UNK     0     146.889 111.474 107.140  0.00  0.00     0.022 C 
BRANCH  19  20
HETATM   20  C   UNK     0     146.520 110.072 106.621  0.00  0.00     0.004 C 
BRANCH  20  21
HETATM   21  C   UNK     0     146.548 108.865 107.577  0.00  0.00     0.000 C 
BRANCH  21  22
HETATM   22  C   UNK     0     146.019 107.498 107.107  0.00  0.00     0.000 C 
HETATM   23  C   UNK     0     146.250 107.041 105.655  0.00  0.00     0.000 C 
ENDBRANCH  21  22
ENDBRANCH  20  21
ENDBRANCH  19  20
ENDBRANCH   2  19
TORSDOF 4
ENDMDL
MODEL 3
REMARK VINA RESULT:      -7.6     16.811     19.209
REMARK  4 active torsions:
REMARK  status: ('A' for Active; 'I' for Inactive)
REMARK    1  A    between atoms: C_2  and  C_16 
REMARK    2  A    between atoms: C_16  and  C_17 
REMARK    3  A    between atoms: C_17  and  C_18 
REMARK    4  A    between atoms: C_18  and  C_19 
ROOT
HETATM    1  C   UNK     0     126.991  75.790 130.472  0.00  0.00    -0.026 A 
HETATM    2  C   UNK     0     126.045  74.766 131.134  0.00  0.00    -0.041 A 
HETATM    3  C   UNK     0     125.064  75.227 132.241  0.00  0.00     0.076 A 
HETATM    4  C   UNK     0     125.035  76.702 132.677  0.00  0.00     0.109 A 
HETATM    5  C   UNK     0     126.958  77.266 130.912  0.00  0.00     0.067 A 
HETATM    6  C   UNK     0     125.975  77.714 132.017  0.00  0.00     0.003 A 
HETATM    7  C   UNK     0     127.860  79.769 130.700  0.00  0.00    -0.030 A 
HETATM    8  C   UNK     0     126.878  80.216 131.805  0.00  0.00    -0.031 A 
HETATM    9  C   UNK     0     125.937  79.176 132.458  0.00  0.00    -0.028 A 
HETATM   10  C   UNK     0     124.954  79.611 133.560  0.00  0.00     0.026 A 
HETATM   11  C   UNK     0     124.904  81.088 134.018  0.00  0.00     0.005 A 
HETATM   12  C   UNK     0     125.845  82.130 133.365  0.00  0.00     0.005 A 
HETATM   13  C   UNK     0     126.837  81.693 132.253  0.00  0.00     0.026 A 
HETATM   14  C   UNK     0     123.920  81.522 135.120  0.00  0.00     0.000 C 
HETATM   15  O   UNK     0     124.060  77.161 133.777  0.00  0.00    -0.195 OA
HETATM   16  C   UNK     0     127.899  78.295 130.255  0.00  0.00    -0.022 A 
HETATM   17  C   UNK     0     128.801  80.796 130.044  0.00  0.00     0.030 C 
HETATM   18  O   UNK     0     127.935  76.824 129.813  0.00  0.00     0.000 OA
ENDROOT
BRANCH   2  19
HETATM   19  C   UNK     0     126.076  73.290 130.695  0.00  0.00     0.022 C 
BRANCH  19  20
HETATM   20  C   UNK     0     127.046  72.306 131.376  0.00  0.00     0.004 C 
BRANCH  20  21
HETATM   21  C   UNK     0     128.469  72.761 131.748  0.00  0.00     0.000 C 
BRANCH  21  22
HETATM   22  C   UNK     0     128.764  73.287 133.164  0.00  0.00     0.000 C 
HETATM   23  C   UNK     0     127.626  73.400 134.196  0.00  0.00     0.000 C 
ENDBRANCH  21  22
ENDBRANCH  20  21
ENDBRANCH  19  20
ENDBRANCH   2  19
TORSDOF 4
ENDMDL
MODEL 4
REMARK VINA RESULT:      -7.4     46.821     49.464
REMARK  4 active torsions:
REMARK  status: ('A' for Active; 'I' for Inactive)
REMARK    1  A    between atoms: C_2  and  C_16 
REMARK    2  A    between atoms: C_16  and  C_17 
REMARK    3  A    between atoms: C_17  and  C_18 
REMARK    4  A    between atoms: C_18  and  C_19 
ROOT
HETATM    1  C   UNK     0     157.407 109.891 110.544  0.00  0.00    -0.026 A 
HETATM    2  C   UNK     0     158.004 111.207 111.085  0.00  0.00    -0.041 A 
HETATM    3  C   UNK     0     159.482 111.248 111.551  0.00  0.00     0.076 A 
HETATM    4  C   UNK     0     160.348 109.979 111.473  0.00  0.00     0.109 A 
HETATM    5  C   UNK     0     158.279 108.623 110.468  0.00  0.00     0.067 A 
HETATM    6  C   UNK     0     159.750 108.676 110.935  0.00  0.00     0.003 A 
HETATM    7  C   UNK     0     158.567 106.041 109.856  0.00  0.00    -0.030 A 
HETATM    8  C   UNK     0     160.038 106.095 110.323  0.00  0.00    -0.031 A 
HETATM    9  C   UNK     0     160.621 107.423 110.863  0.00  0.00    -0.028 A 
HETATM   10  C   UNK     0     162.086 107.488 111.331  0.00  0.00     0.026 A 
HETATM   11  C   UNK     0     162.980 106.227 111.264  0.00  0.00     0.005 A 
HETATM   12  C   UNK     0     162.397 104.897 110.724  0.00  0.00     0.005 A 
HETATM   13  C   UNK     0     160.921 104.830 110.252  0.00  0.00     0.026 A 
HETATM   14  C   UNK     0     164.445 106.293 111.732  0.00  0.00     0.000 C 
HETATM   15  O   UNK     0     161.816 110.019 111.935  0.00  0.00    -0.195 OA
HETATM   16  C   UNK     0     157.690 107.305 109.929  0.00  0.00    -0.022 A 
HETATM   17  C   UNK     0     157.978 104.725 109.318  0.00  0.00     0.030 C 
HETATM   18  O   UNK     0     156.817 108.567 110.003  0.00  0.00     0.000 OA
ENDROOT
BRANCH   2  19
HETATM   19  C   UNK     0     157.135 112.476 111.162  0.00  0.00     0.022 C 
BRANCH  19  20
HETATM   20  C   UNK     0     155.840 112.472 111.996  0.00  0.00     0.004 C 
BRANCH  20  21
HETATM   21  C   UNK     0     154.483 112.717 111.310  0.00  0.00     0.000 C 
BRANCH  21  22
HETATM   22  C   UNK     0     154.424 113.465 109.966  0.00  0.00     0.000 C 
HETATM   23  C   UNK     0     154.735 114.972 109.909  0.00  0.00     0.000 C 
ENDBRANCH  21  22
ENDBRANCH  20  21
ENDBRANCH  19  20
ENDBRANCH   2  19
TORSDOF 4
ENDMDL
MODEL 5
REMARK VINA RESULT:      -7.3     24.381     28.131
REMARK  4 active torsions:
REMARK  status: ('A' for Active; 'I' for Inactive)
REMARK    1  A    between atoms: C_2  and  C_16 
REMARK    2  A    between atoms: C_16  and  C_17 
REMARK    3  A    between atoms: C_17  and  C_18 
REMARK    4  A    between atoms: C_18  and  C_19 
ROOT
HETATM    1  C   UNK     0     131.583  80.895 106.988  0.00  0.00    -0.026 A 
HETATM    2  C   UNK     0     130.535  80.172 106.115  0.00  0.00    -0.041 A 
HETATM    3  C   UNK     0     130.994  79.125 105.069  0.00  0.00     0.076 A 
HETATM    4  C   UNK     0     132.491  78.809 104.904  0.00  0.00     0.109 A 
HETATM    5  C   UNK     0     133.080  80.575 106.819  0.00  0.00     0.067 A 
HETATM    6  C   UNK     0     133.525  79.529 105.773  0.00  0.00     0.003 A 
HETATM    7  C   UNK     0     135.627  80.966 107.513  0.00  0.00    -0.030 A 
HETATM    8  C   UNK     0     136.073  79.921 106.467  0.00  0.00    -0.031 A 
HETATM    9  C   UNK     0     135.009  79.205 105.600  0.00  0.00    -0.028 A 
HETATM   10  C   UNK     0     135.441  78.162 104.554  0.00  0.00     0.026 A 
HETATM   11  C   UNK     0     136.940  77.824 104.368  0.00  0.00     0.005 A 
HETATM   12  C   UNK     0     138.005  78.539 105.235  0.00  0.00     0.005 A 
HETATM   13  C   UNK     0     137.570  79.592 106.290  0.00  0.00     0.026 A 
HETATM   14  C   UNK     0     137.371  76.780 103.321  0.00  0.00     0.000 C 
HETATM   15  O   UNK     0     132.948  77.769 103.865  0.00  0.00    -0.195 OA
HETATM   16  C   UNK     0     134.132  81.292 107.688  0.00  0.00    -0.022 A 
HETATM   17  C   UNK     0     136.677  81.683 108.381  0.00  0.00     0.030 C 
HETATM   18  O   UNK     0     132.640  81.614 107.860  0.00  0.00     0.000 OA
ENDROOT
BRANCH   2  19
HETATM   19  C   UNK     0     129.037  80.491 106.283  0.00  0.00     0.022 C 
BRANCH  19  20
HETATM   20  C   UNK     0     128.295  80.052 107.559  0.00  0.00     0.004 C 
BRANCH  20  21
HETATM   21  C   UNK     0     127.985  81.081 108.661  0.00  0.00     0.000 C 
BRANCH  21  22
HETATM   22  C   UNK     0     128.357  82.561 108.459  0.00  0.00     0.000 C 
HETATM   23  C   UNK     0     129.555  83.164 109.214  0.00  0.00     0.000 C 
ENDBRANCH  21  22
ENDBRANCH  20  21
ENDBRANCH  19  20
ENDBRANCH   2  19
TORSDOF 4
ENDMDL
MODEL 6
REMARK VINA RESULT:      -7.3     10.962     13.455
REMARK  4 active torsions:
REMARK  status: ('A' for Active; 'I' for Inactive)
REMARK    1  A    between atoms: C_2  and  C_16 
REMARK    2  A    between atoms: C_16  and  C_17 
REMARK    3  A    between atoms: C_17  and  C_18 
REMARK    4  A    between atoms: C_18  and  C_19 
ROOT
HETATM    1  C   UNK     0     110.693  82.396 114.919  0.00  0.00    -0.026 A 
HETATM    2  C   UNK     0     109.556  83.335 115.375  0.00  0.00    -0.041 A 
HETATM    3  C   UNK     0     109.676  84.093 116.722  0.00  0.00     0.076 A 
HETATM    4  C   UNK     0     110.927  83.907 117.599  0.00  0.00     0.109 A 
HETATM    5  C   UNK     0     111.942  82.214 115.801  0.00  0.00     0.067 A 
HETATM    6  C   UNK     0     112.051  82.974 117.141  0.00  0.00     0.003 A 
HETATM    7  C   UNK     0     114.328  81.101 116.239  0.00  0.00    -0.030 A 
HETATM    8  C   UNK     0     114.437  81.861 117.579  0.00  0.00    -0.031 A 
HETATM    9  C   UNK     0     113.287  82.799 118.022  0.00  0.00    -0.028 A 
HETATM   10  C   UNK     0     113.385  83.561 119.355  0.00  0.00     0.026 A 
HETATM   11  C   UNK     0     114.631  83.393 120.256  0.00  0.00     0.005 A 
HETATM   12  C   UNK     0     115.782  82.455 119.815  0.00  0.00     0.005 A 
HETATM   13  C   UNK     0     115.685  81.685 118.470  0.00  0.00     0.026 A 
HETATM   14  C   UNK     0     114.728  84.156 121.591  0.00  0.00     0.000 C 
HETATM   15  O   UNK     0     111.048  84.659 118.937  0.00  0.00    -0.195 OA
HETATM   16  C   UNK     0     113.082  81.278 115.352  0.00  0.00    -0.022 A 
HETATM   17  C   UNK     0     115.466  80.166 115.790  0.00  0.00     0.030 C 
HETATM   18  O   UNK     0     111.837  81.457 114.470  0.00  0.00     0.000 OA
ENDROOT
BRANCH   2  19
HETATM   19  C   UNK     0     108.305  83.519 114.495  0.00  0.00     0.022 C 
BRANCH  19  20
HETATM   20  C   UNK     0     108.264  84.643 113.443  0.00  0.00     0.004 C 
BRANCH  20  21
HETATM   21  C   UNK     0     108.902  86.010 113.752  0.00  0.00     0.000 C 
BRANCH  21  22
HETATM   22  C   UNK     0     108.034  87.160 114.293  0.00  0.00     0.000 C 
HETATM   23  C   UNK     0     108.516  87.987 115.500  0.00  0.00     0.000 C 
ENDBRANCH  21  22
ENDBRANCH  20  21
ENDBRANCH  19  20
ENDBRANCH   2  19
TORSDOF 4
ENDMDL
MODEL 7
REMARK VINA RESULT:      -7.2     54.198     58.460
REMARK  4 active torsions:
REMARK  status: ('A' for Active; 'I' for Inactive)
REMARK    1  A    between atoms: C_2  and  C_16 
REMARK    2  A    between atoms: C_16  and  C_17 
REMARK    3  A    between atoms: C_17  and  C_18 
REMARK    4  A    between atoms: C_18  and  C_19 
ROOT
HETATM    1  C   UNK     0      70.533 118.857 104.385  0.00  0.00    -0.026 A 
HETATM    2  C   UNK     0      71.555 118.266 103.391  0.00  0.00    -0.041 A 
HETATM    3  C   UNK     0      71.370 118.494 101.870  0.00  0.00     0.076 A 
HETATM    4  C   UNK     0      70.170 119.309 101.355  0.00  0.00     0.109 A 
HETATM    5  C   UNK     0      69.334 119.672 103.865  0.00  0.00     0.067 A 
HETATM    6  C   UNK     0      69.160 119.893 102.346  0.00  0.00     0.003 A 
HETATM    7  C   UNK     0      67.113 121.079 104.323  0.00  0.00    -0.030 A 
HETATM    8  C   UNK     0      66.939 121.300 102.805  0.00  0.00    -0.031 A 
HETATM    9  C   UNK     0      67.973 120.700 101.821  0.00  0.00    -0.028 A 
HETATM   10  C   UNK     0      67.810 120.914 100.306  0.00  0.00     0.026 A 
HETATM   11  C   UNK     0      66.613 121.729  99.761  0.00  0.00     0.005 A 
HETATM   12  C   UNK     0      65.578 122.330 100.743  0.00  0.00     0.005 A 
HETATM   13  C   UNK     0      65.741 122.115 102.272  0.00  0.00     0.026 A 
HETATM   14  C   UNK     0      66.451 121.942  98.244  0.00  0.00     0.000 C 
HETATM   15  O   UNK     0      69.986 119.536  99.843  0.00  0.00    -0.195 OA
HETATM   16  C   UNK     0      68.309 120.266 104.851  0.00  0.00    -0.022 A 
HETATM   17  C   UNK     0      66.090 121.672 105.309  0.00  0.00     0.030 C 
HETATM   18  O   UNK     0      69.504 119.454 105.375  0.00  0.00     0.000 OA
ENDROOT
BRANCH   2  19
HETATM   19  C   UNK     0      72.754 117.451 103.910  0.00  0.00     0.022 C 
BRANCH  19  20
HETATM   20  C   UNK     0      72.597 116.556 105.153  0.00  0.00     0.004 C 
BRANCH  20  21
HETATM   21  C   UNK     0      73.442 115.276 105.292  0.00  0.00     0.000 C 
BRANCH  21  22
HETATM   22  C   UNK     0      73.706 114.675 106.685  0.00  0.00     0.000 C 
HETATM   23  C   UNK     0      75.099 114.804 107.327  0.00  0.00     0.000 C 
ENDBRANCH  21  22
ENDBRANCH  20  21
ENDBRANCH  19  20
ENDBRANCH   2  19
TORSDOF 4
ENDMDL
MODEL 8
REMARK VINA RESULT:      -7.1     53.749     58.092
REMARK  4 active torsions:
REMARK  status: ('A' for Active; 'I' for Inactive)
REMARK    1  A    between atoms: C_2  and  C_16 
REMARK    2  A    between atoms: C_16  and  C_17 
REMARK    3  A    between atoms: C_17  and  C_18 
REMARK    4  A    between atoms: C_18  and  C_19 
ROOT
HETATM    1  C   UNK     0      71.479 118.410 102.427  0.00  0.00    -0.026 A 
HETATM    2  C   UNK     0      71.959 117.929 103.812  0.00  0.00    -0.041 A 
HETATM    3  C   UNK     0      71.139 118.286 105.078  0.00  0.00     0.076 A 
HETATM    4  C   UNK     0      69.850 119.117 104.950  0.00  0.00     0.109 A 
HETATM    5  C   UNK     0      70.188 119.241 102.304  0.00  0.00     0.067 A 
HETATM    6  C   UNK     0      69.379 119.591 103.573  0.00  0.00     0.003 A 
HETATM    7  C   UNK     0      68.410 120.556 100.808  0.00  0.00    -0.030 A 
HETATM    8  C   UNK     0      67.602 120.905 102.077  0.00  0.00    -0.031 A 
HETATM    9  C   UNK     0      68.097 120.415 103.459  0.00  0.00    -0.028 A 
HETATM   10  C   UNK     0      67.299 120.757 104.730  0.00  0.00     0.026 A 
HETATM   11  C   UNK     0      66.000 121.591 104.630  0.00  0.00     0.005 A 
HETATM   12  C   UNK     0      65.503 122.082 103.248  0.00  0.00     0.005 A 
HETATM   13  C   UNK     0      66.307 121.738 101.965  0.00  0.00     0.026 A 
HETATM   14  C   UNK     0      65.202 121.933 105.902  0.00  0.00     0.000 C 
HETATM   15  O   UNK     0      69.034 119.472 106.207  0.00  0.00    -0.195 OA
HETATM   16  C   UNK     0      69.702 119.725 100.923  0.00  0.00    -0.022 A 
HETATM   17  C   UNK     0      67.926 121.038  99.429  0.00  0.00     0.030 C 
HETATM   18  O   UNK     0      70.990 118.896 101.041  0.00  0.00     0.000 OA
ENDROOT
BRANCH   2  19
HETATM   19  C   UNK     0      73.249 117.098 103.938  0.00  0.00     0.022 C 
BRANCH  19  20
HETATM   20  C   UNK     0      73.558 116.350 105.248  0.00  0.00     0.004 C 
BRANCH  20  21
HETATM   21  C   UNK     0      73.079 114.899 105.437  0.00  0.00     0.000 C 
BRANCH  21  22
HETATM   22  C   UNK     0      72.193 114.532 106.641  0.00  0.00     0.000 C 
HETATM   23  C   UNK     0      71.844 115.600 107.694  0.00  0.00     0.000 C 
ENDBRANCH  21  22
ENDBRANCH  20  21
ENDBRANCH  19  20
ENDBRANCH   2  19
TORSDOF 4
ENDMDL
MODEL 9
REMARK VINA RESULT:      -7.0     27.085     29.283
REMARK  4 active torsions:
REMARK  status: ('A' for Active; 'I' for Inactive)
REMARK    1  A    between atoms: C_2  and  C_16 
REMARK    2  A    between atoms: C_16  and  C_17 
REMARK    3  A    between atoms: C_17  and  C_18 
REMARK    4  A    between atoms: C_18  and  C_19 
ROOT
HETATM    1  C   UNK     0     135.003  86.172 145.689  0.00  0.00    -0.026 A 
HETATM    2  C   UNK     0     133.608  85.927 145.075  0.00  0.00    -0.041 A 
HETATM    3  C   UNK     0     132.700  87.132 144.721  0.00  0.00     0.076 A 
HETATM    4  C   UNK     0     133.191  88.567 144.982  0.00  0.00     0.109 A 
HETATM    5  C   UNK     0     135.490  87.610 145.948  0.00  0.00     0.067 A 
HETATM    6  C   UNK     0     134.575  88.803 145.591  0.00  0.00     0.003 A 
HETATM    7  C   UNK     0     137.361  89.304 146.817  0.00  0.00    -0.030 A 
HETATM    8  C   UNK     0     136.447  90.496 146.460  0.00  0.00    -0.031 A 
HETATM    9  C   UNK     0     135.051  90.233 145.845  0.00  0.00    -0.028 A 
HETATM   10  C   UNK     0     134.131  91.414 145.486  0.00  0.00     0.026 A 
HETATM   11  C   UNK     0     134.599  92.867 145.737  0.00  0.00     0.005 A 
HETATM   12  C   UNK     0     135.996  93.132 146.352  0.00  0.00     0.005 A 
HETATM   13  C   UNK     0     136.924  91.942 146.716  0.00  0.00     0.026 A 
HETATM   14  C   UNK     0     133.679  94.048 145.377  0.00  0.00     0.000 C 
HETATM   15  O   UNK     0     132.289  89.765 144.631  0.00  0.00    -0.195 OA
HETATM   16  C   UNK     0     136.881  87.863 146.560  0.00  0.00    -0.022 A 
HETATM   17  C   UNK     0     138.751  89.555 147.428  0.00  0.00     0.030 C 
HETATM   18  O   UNK     0     136.400  86.427 146.303  0.00  0.00     0.000 OA
ENDROOT
BRANCH   2  19
HETATM   19  C   UNK     0     133.120  84.490 144.815  0.00  0.00     0.022 C 
BRANCH  19  20
HETATM   20  C   UNK     0     132.326  83.739 145.900  0.00  0.00     0.004 C 
BRANCH  20  21
HETATM   21  C   UNK     0     132.477  84.141 147.379  0.00  0.00     0.000 C 
BRANCH  21  22
HETATM   22  C   UNK     0     131.472  85.117 148.017  0.00  0.00     0.000 C 
HETATM   23  C   UNK     0     131.891  86.570 148.312  0.00  0.00     0.000 C 
ENDBRANCH  21  22
ENDBRANCH  20  21
ENDBRANCH  19  20
ENDBRANCH   2  19
TORSDOF 4
ENDMDL
MODEL 10
REMARK VINA RESULT:      -6.8     24.393     29.682
REMARK  4 active torsions:
REMARK  status: ('A' for Active; 'I' for Inactive)
REMARK    1  A    between atoms: C_2  and  C_16 
REMARK    2  A    between atoms: C_16  and  C_17 
REMARK    3  A    between atoms: C_17  and  C_18 
REMARK    4  A    between atoms: C_18  and  C_19 
ROOT
HETATM    1  C   UNK     0     110.343 116.447 108.492  0.00  0.00    -0.026 A 
HETATM    2  C   UNK     0     110.045 117.657 109.403  0.00  0.00    -0.041 A 
HETATM    3  C   UNK     0     110.049 117.481 110.943  0.00  0.00     0.076 A 
HETATM    4  C   UNK     0     110.349 116.104 111.558  0.00  0.00     0.109 A 
HETATM    5  C   UNK     0     110.643 115.070 109.114  0.00  0.00     0.067 A 
HETATM    6  C   UNK     0     110.644 114.907 110.650  0.00  0.00     0.003 A 
HETATM    7  C   UNK     0     111.240 112.483 108.839  0.00  0.00    -0.030 A 
HETATM    8  C   UNK     0     111.241 112.321 110.375  0.00  0.00    -0.031 A 
HETATM    9  C   UNK     0     110.941 113.545 111.274  0.00  0.00    -0.028 A 
HETATM   10  C   UNK     0     110.939 113.394 112.806  0.00  0.00     0.026 A 
HETATM   11  C   UNK     0     111.238 112.020 113.451  0.00  0.00     0.005 A 
HETATM   12  C   UNK     0     111.539 110.795 112.553  0.00  0.00     0.005 A 
HETATM   13  C   UNK     0     111.541 110.945 111.008  0.00  0.00     0.026 A 
HETATM   14  C   UNK     0     111.236 111.871 114.984  0.00  0.00     0.000 C 
HETATM   15  O   UNK     0     110.353 115.928 113.088  0.00  0.00    -0.195 OA
HETATM   16  C   UNK     0     110.941 113.857 108.211  0.00  0.00    -0.022 A 
HETATM   17  C   UNK     0     111.538 111.273 107.937  0.00  0.00     0.030 C 
HETATM   18  O   UNK     0     110.642 115.229 107.587  0.00  0.00     0.000 OA
ENDROOT
BRANCH   2  19
HETATM   19  C   UNK     0     109.745 119.035 108.784  0.00  0.00     0.022 C 
BRANCH  19  20
HETATM   20  C   UNK     0     108.882 120.053 109.554  0.00  0.00     0.004 C 
BRANCH  20  21
HETATM   21  C   UNK     0     107.377 120.170 109.251  0.00  0.00     0.000 C 
BRANCH  21  22
HETATM   22  C   UNK     0     106.344 119.762 110.317  0.00  0.00     0.000 C 
HETATM   23  C   UNK     0     106.525 118.449 111.102  0.00  0.00     0.000 C 
ENDBRANCH  21  22
ENDBRANCH  20  21
ENDBRANCH  19  20
ENDBRANCH   2  19
TORSDOF 4
ENDMDL
