MODEL 1
REMARK VINA RESULT:      -8.1      0.000      0.000
REMARK  0 active torsions:
REMARK  status: ('A' for Active; 'I' for Inactive)
REMARK       I    between atoms: N_2  and  C_14 
ROOT
HETATM    1  O   UNK     0     144.061 113.380 107.682  0.00  0.00    -0.154 OA
HETATM    2  N   UNK     0     142.817 115.617 107.762  0.00  0.00    -0.283 N 
HETATM    3  N   UNK     0     144.572 115.192 105.946  0.00  0.00    -0.053 NA
HETATM    4  C   UNK     0     142.118 115.060 108.939  0.00  0.00     0.040 A 
HETATM    5  C   UNK     0     142.649 116.945 107.132  0.00  0.00     0.040 A 
HETATM    6  C   UNK     0     141.077 115.693 109.779  0.00  0.00    -0.010 A 
HETATM    7  C   UNK     0     141.740 118.043 107.526  0.00  0.00    -0.010 A 
HETATM    8  C   UNK     0     140.480 117.039 109.648  0.00  0.00    -0.003 A 
HETATM    9  C   UNK     0     140.775 118.085 108.645  0.00  0.00    -0.003 A 
HETATM   10  C   UNK     0     142.615 113.635 109.239  0.00  0.00     0.044 A 
HETATM   11  C   UNK     0     143.591 117.093 105.923  0.00  0.00     0.044 A 
HETATM   12  C   UNK     0     140.464 114.943 110.975  0.00  0.00     0.028 A 
HETATM   13  C   UNK     0     141.711 119.365 106.736  0.00  0.00     0.028 A 
HETATM   14  C   UNK     0     143.817 114.730 107.130  0.00  0.00     0.271 C 
HETATM   15  C   UNK     0     142.022 112.856 110.428  0.00  0.00     0.007 A 
HETATM   16  C   UNK     0     143.586 118.402 105.112  0.00  0.00     0.007 A 
HETATM   17  C   UNK     0     140.938 113.516 111.302  0.00  0.00     0.005 A 
HETATM   18  C   UNK     0     142.639 119.546 105.522  0.00  0.00     0.005 A 
ENDROOT
TORSDOF 0
ENDMDL
MODEL 2
REMARK VINA RESULT:      -8.0     26.140     28.095
REMARK  0 active torsions:
REMARK  status: ('A' for Active; 'I' for Inactive)
REMARK       I    between atoms: N_2  and  C_14 
ROOT
HETATM    1  O   UNK     0     162.729 109.417 129.480  0.00  0.00    -0.154 OA
HETATM    2  N   UNK     0     160.444 108.833 128.483  0.00  0.00    -0.283 N 
HETATM    3  N   UNK     0     161.358 111.217 128.279  0.00  0.00    -0.053 NA
HETATM    4  C   UNK     0     160.694 107.468 128.993  0.00  0.00     0.040 A 
HETATM    5  C   UNK     0     159.268 109.340 127.743  0.00  0.00     0.040 A 
HETATM    6  C   UNK     0     159.830 106.272 128.889  0.00  0.00    -0.010 A 
HETATM    7  C   UNK     0     158.052 108.606 127.331  0.00  0.00    -0.010 A 
HETATM    8  C   UNK     0     158.503 106.147 128.250  0.00  0.00    -0.003 A 
HETATM    9  C   UNK     0     157.712 107.185 127.557  0.00  0.00    -0.003 A 
HETATM   10  C   UNK     0     162.057 107.399 129.705  0.00  0.00     0.044 A 
HETATM   11  C   UNK     0     159.440 110.833 127.412  0.00  0.00     0.044 A 
HETATM   12  C   UNK     0     160.270 104.925 129.491  0.00  0.00     0.028 A 
HETATM   13  C   UNK     0     156.925 109.317 126.559  0.00  0.00     0.028 A 
HETATM   14  C   UNK     0     161.511 109.822 128.748  0.00  0.00     0.271 C 
HETATM   15  C   UNK     0     162.528 106.066 130.318  0.00  0.00     0.007 A 
HETATM   16  C   UNK     0     158.332 111.574 126.641  0.00  0.00     0.007 A 
HETATM   17  C   UNK     0     161.628 104.821 130.210  0.00  0.00     0.005 A 
HETATM   18  C   UNK     0     157.065 110.810 126.212  0.00  0.00     0.005 A 
ENDROOT
TORSDOF 0
ENDMDL
MODEL 3
REMARK VINA RESULT:      -7.0     27.920     30.020
REMARK  0 active torsions:
REMARK  status: ('A' for Active; 'I' for Inactive)
REMARK       I    between atoms: N_2  and  C_14 
ROOT
HETATM    1  O   UNK     0     162.565 110.112 130.820  0.00  0.00    -0.154 OA
HETATM    2  N   UNK     0     161.092 108.291 129.785  0.00  0.00    -0.283 N 
HETATM    3  N   UNK     0     160.575 110.760 129.343  0.00  0.00    -0.053 NA
HETATM    4  C   UNK     0     161.989 107.334 130.467  0.00  0.00     0.040 A 
HETATM    5  C   UNK     0     159.918 108.008 128.931  0.00  0.00     0.040 A 
HETATM    6  C   UNK     0     161.934 105.856 130.464  0.00  0.00    -0.010 A 
HETATM    7  C   UNK     0     159.352 106.696 128.549  0.00  0.00    -0.010 A 
HETATM    8  C   UNK     0     160.968 104.971 129.778  0.00  0.00    -0.003 A 
HETATM    9  C   UNK     0     159.819 105.345 128.926  0.00  0.00    -0.003 A 
HETATM   10  C   UNK     0     163.082 108.082 131.250  0.00  0.00     0.044 A 
HETATM   11  C   UNK     0     159.284 109.318 128.432  0.00  0.00     0.044 A 
HETATM   12  C   UNK     0     162.968 105.025 131.244  0.00  0.00     0.028 A 
HETATM   13  C   UNK     0     158.111 106.606 127.641  0.00  0.00     0.028 A 
HETATM   14  C   UNK     0     161.411 109.721 129.983  0.00  0.00     0.271 C 
HETATM   15  C   UNK     0     164.134 107.281 132.042  0.00  0.00     0.007 A 
HETATM   16  C   UNK     0     158.042 109.264 127.523  0.00  0.00     0.007 A 
HETATM   17  C   UNK     0     164.076 105.741 132.039  0.00  0.00     0.005 A 
HETATM   18  C   UNK     0     157.452 107.898 127.124  0.00  0.00     0.005 A 
ENDROOT
TORSDOF 0
ENDMDL
MODEL 4
REMARK VINA RESULT:      -6.8     31.368     32.472
REMARK  0 active torsions:
REMARK  status: ('A' for Active; 'I' for Inactive)
REMARK       I    between atoms: N_2  and  C_14 
ROOT
HETATM    1  O   UNK     0     111.531 113.210 107.556  0.00  0.00    -0.154 OA
HETATM    2  N   UNK     0     110.680 113.454 109.959  0.00  0.00    -0.283 N 
HETATM    3  N   UNK     0     111.516 111.183 109.121  0.00  0.00    -0.053 NA
HETATM    4  C   UNK     0     110.444 114.872 109.614  0.00  0.00     0.040 A 
HETATM    5  C   UNK     0     110.429 112.762 111.242  0.00  0.00     0.040 A 
HETATM    6  C   UNK     0     109.898 115.949 110.467  0.00  0.00    -0.010 A 
HETATM    7  C   UNK     0     109.879 113.320 112.497  0.00  0.00    -0.010 A 
HETATM    8  C   UNK     0     109.453 115.875 111.875  0.00  0.00    -0.003 A 
HETATM    9  C   UNK     0     109.445 114.705 112.778  0.00  0.00    -0.003 A 
HETATM   10  C   UNK     0     110.855 115.149 108.157  0.00  0.00     0.044 A 
HETATM   11  C   UNK     0     110.827 111.278 111.144  0.00  0.00     0.044 A 
HETATM   12  C   UNK     0     109.725 117.378 109.921  0.00  0.00     0.028 A 
HETATM   13  C   UNK     0     109.690 112.430 113.740  0.00  0.00     0.028 A 
HETATM   14  C   UNK     0     111.243 112.616 108.878  0.00  0.00     0.271 C 
HETATM   15  C   UNK     0     110.695 116.568 107.578  0.00  0.00     0.007 A 
HETATM   16  C   UNK     0     110.651 110.361 112.368  0.00  0.00     0.007 A 
HETATM   17  C   UNK     0     110.126 117.690 108.467  0.00  0.00     0.005 A 
HETATM   18  C   UNK     0     110.078 110.941 113.676  0.00  0.00     0.005 A 
ENDROOT
TORSDOF 0
ENDMDL
MODEL 5
REMARK VINA RESULT:      -6.8     41.518     43.029
REMARK  0 active torsions:
REMARK  status: ('A' for Active; 'I' for Inactive)
REMARK       I    between atoms: N_2  and  C_14 
ROOT
HETATM    1  O   UNK     0     132.953 113.045 148.151  0.00  0.00    -0.154 OA
HETATM    2  N   UNK     0     133.729 114.915 149.719  0.00  0.00    -0.283 N 
HETATM    3  N   UNK     0     135.119 112.776 149.490  0.00  0.00    -0.053 NA
HETATM    4  C   UNK     0     132.514 115.634 149.282  0.00  0.00     0.040 A 
HETATM    5  C   UNK     0     134.768 115.354 150.676  0.00  0.00     0.040 A 
HETATM    6  C   UNK     0     132.036 116.972 149.694  0.00  0.00    -0.010 A 
HETATM    7  C   UNK     0     134.846 116.623 151.432  0.00  0.00    -0.010 A 
HETATM    8  C   UNK     0     132.657 117.920 150.645  0.00  0.00    -0.003 A 
HETATM    9  C   UNK     0     133.907 117.764 151.418  0.00  0.00    -0.003 A 
HETATM   10  C   UNK     0     131.721 114.790 148.269  0.00  0.00     0.044 A 
HETATM   11  C   UNK     0     135.856 114.276 150.826  0.00  0.00     0.044 A 
HETATM   12  C   UNK     0     130.732 117.556 149.121  0.00  0.00     0.028 A 
HETATM   13  C   UNK     0     136.020 116.899 152.391  0.00  0.00     0.028 A 
HETATM   14  C   UNK     0     133.934 113.578 149.120  0.00  0.00     0.271 C 
HETATM   15  C   UNK     0     130.411 115.344 147.676  0.00  0.00     0.007 A 
HETATM   16  C   UNK     0     137.042 114.520 151.777  0.00  0.00     0.007 A 
HETATM   17  C   UNK     0     129.914 116.738 148.106  0.00  0.00     0.005 A 
HETATM   18  C   UNK     0     137.125 115.841 152.565  0.00  0.00     0.005 A 
ENDROOT
TORSDOF 0
ENDMDL
MODEL 6
REMARK VINA RESULT:      -6.6     24.820     25.951
REMARK  0 active torsions:
REMARK  status: ('A' for Active; 'I' for Inactive)
REMARK       I    between atoms: N_2  and  C_14 
ROOT
HETATM    1  O   UNK     0     122.169 128.471 122.599  0.00  0.00    -0.154 OA
HETATM    2  N   UNK     0     124.638 128.070 123.149  0.00  0.00    -0.283 N 
HETATM    3  N   UNK     0     123.824 130.425 122.554  0.00  0.00    -0.053 NA
HETATM    4  C   UNK     0     124.251 126.655 123.337  0.00  0.00     0.040 A 
HETATM    5  C   UNK     0     125.974 128.688 123.291  0.00  0.00     0.040 A 
HETATM    6  C   UNK     0     125.105 125.509 123.715  0.00  0.00    -0.010 A 
HETATM    7  C   UNK     0     127.253 128.043 123.658  0.00  0.00    -0.010 A 
HETATM    8  C   UNK     0     126.557 125.494 123.998  0.00  0.00    -0.003 A 
HETATM    9  C   UNK     0     127.512 126.622 123.972  0.00  0.00    -0.003 A 
HETATM   10  C   UNK     0     122.745 126.468 123.082  0.00  0.00     0.044 A 
HETATM   11  C   UNK     0     125.905 130.198 122.998  0.00  0.00     0.044 A 
HETATM   12  C   UNK     0     124.511 124.096 123.863  0.00  0.00     0.028 A 
HETATM   13  C   UNK     0     128.552 128.865 123.755  0.00  0.00     0.028 A 
HETATM   14  C   UNK     0     123.543 128.988 122.767  0.00  0.00     0.271 C 
HETATM   15  C   UNK     0     122.118 125.068 123.221  0.00  0.00     0.007 A 
HETATM   16  C   UNK     0     127.185 131.048 123.086  0.00  0.00     0.007 A 
HETATM   17  C   UNK     0     123.008 123.874 123.615  0.00  0.00     0.005 A 
HETATM   18  C   UNK     0     128.519 130.377 123.468  0.00  0.00     0.005 A 
ENDROOT
TORSDOF 0
ENDMDL
MODEL 7
REMARK VINA RESULT:      -6.6     20.139     22.515
REMARK  0 active torsions:
REMARK  status: ('A' for Active; 'I' for Inactive)
REMARK       I    between atoms: N_2  and  C_14 
ROOT
HETATM    1  O   UNK     0     156.518  99.307 101.912  0.00  0.00    -0.154 OA
HETATM    2  N   UNK     0     155.531  98.943 104.247  0.00  0.00    -0.283 N 
HETATM    3  N   UNK     0     154.169 100.169 102.457  0.00  0.00    -0.053 NA
HETATM    4  C   UNK     0     156.806  98.265 104.560  0.00  0.00     0.040 A 
HETATM    5  C   UNK     0     154.362  99.163 105.126  0.00  0.00     0.040 A 
HETATM    6  C   UNK     0     157.229  97.638 105.831  0.00  0.00    -0.010 A 
HETATM    7  C   UNK     0     154.182  98.757 106.537  0.00  0.00    -0.010 A 
HETATM    8  C   UNK     0     156.481  97.534 107.102  0.00  0.00    -0.003 A 
HETATM    9  C   UNK     0     155.125  98.032 107.416  0.00  0.00    -0.003 A 
HETATM   10  C   UNK     0     157.737  98.272 103.334  0.00  0.00     0.044 A 
HETATM   11  C   UNK     0     153.252  99.918 104.373  0.00  0.00     0.044 A 
HETATM   12  C   UNK     0     158.612  96.975 105.962  0.00  0.00     0.028 A 
HETATM   13  C   UNK     0     152.878  99.079 107.291  0.00  0.00     0.028 A 
HETATM   14  C   UNK     0     155.406  99.473 102.872  0.00  0.00     0.271 C 
HETATM   15  C   UNK     0     159.128  97.617 103.431  0.00  0.00     0.007 A 
HETATM   16  C   UNK     0     151.936 100.256 105.098  0.00  0.00     0.007 A 
HETATM   17  C   UNK     0     159.568  96.964 104.755  0.00  0.00     0.005 A 
HETATM   18  C   UNK     0     151.748  99.834 106.568  0.00  0.00     0.005 A 
ENDROOT
TORSDOF 0
ENDMDL
MODEL 8
REMARK VINA RESULT:      -6.6     37.515     39.277
REMARK  0 active torsions:
REMARK  status: ('A' for Active; 'I' for Inactive)
REMARK       I    between atoms: N_2  and  C_14 
ROOT
HETATM    1  O   UNK     0     114.559  86.900 102.893  0.00  0.00    -0.154 OA
HETATM    2  N   UNK     0     114.028  89.397 103.100  0.00  0.00    -0.283 N 
HETATM    3  N   UNK     0     116.387  88.542 103.616  0.00  0.00    -0.053 NA
HETATM    4  C   UNK     0     112.660  89.028 102.679  0.00  0.00     0.040 A 
HETATM    5  C   UNK     0     114.562  90.736 103.432  0.00  0.00     0.040 A 
HETATM    6  C   UNK     0     111.486  89.906 102.486  0.00  0.00    -0.010 A 
HETATM    7  C   UNK     0     113.857  92.036 103.424  0.00  0.00    -0.010 A 
HETATM    8  C   UNK     0     111.391  91.371 102.666  0.00  0.00    -0.003 A 
HETATM    9  C   UNK     0     112.446  92.318 103.083  0.00  0.00    -0.003 A 
HETATM   10  C   UNK     0     112.559  87.511 102.439  0.00  0.00     0.044 A 
HETATM   11  C   UNK     0     116.048  90.645 103.820  0.00  0.00     0.044 A 
HETATM   12  C   UNK     0     110.131  89.328 102.040  0.00  0.00     0.028 A 
HETATM   13  C   UNK     0     114.592  93.335 103.804  0.00  0.00     0.028 A 
HETATM   14  C   UNK     0     114.991  88.279 103.203  0.00  0.00     0.271 C 
HETATM   15  C   UNK     0     111.218  86.898 101.992  0.00  0.00     0.007 A 
HETATM   16  C   UNK     0     116.813  91.924 104.205  0.00  0.00     0.007 A 
HETATM   17  C   UNK     0     109.996  87.814 101.791  0.00  0.00     0.005 A 
HETATM   18  C   UNK     0     116.080  93.279 104.197  0.00  0.00     0.005 A 
ENDROOT
TORSDOF 0
ENDMDL
MODEL 9
REMARK VINA RESULT:      -6.5     13.831     15.147
REMARK  0 active torsions:
REMARK  status: ('A' for Active; 'I' for Inactive)
REMARK       I    between atoms: N_2  and  C_14 
ROOT
HETATM    1  O   UNK     0     138.588 111.504  91.469  0.00  0.00    -0.154 OA
HETATM    2  N   UNK     0     137.865 112.782  93.567  0.00  0.00    -0.283 N 
HETATM    3  N   UNK     0     136.844 113.371  91.293  0.00  0.00    -0.053 NA
HETATM    4  C   UNK     0     138.815 111.911  94.290  0.00  0.00     0.040 A 
HETATM    5  C   UNK     0     136.999 113.853  94.107  0.00  0.00     0.040 A 
HETATM    6  C   UNK     0     139.135 111.895  95.734  0.00  0.00    -0.010 A 
HETATM    7  C   UNK     0     136.873 114.317  95.505  0.00  0.00    -0.010 A 
HETATM    8  C   UNK     0     138.585 112.747  96.810  0.00  0.00    -0.003 A 
HETATM    9  C   UNK     0     137.578 113.825  96.708  0.00  0.00    -0.003 A 
HETATM   10  C   UNK     0     139.501 110.935  93.318  0.00  0.00     0.044 A 
HETATM   11  C   UNK     0     136.171 114.498  92.982  0.00  0.00     0.044 A 
HETATM   12  C   UNK     0     140.164 110.902  96.304  0.00  0.00     0.028 A 
HETATM   13  C   UNK     0     135.906 115.459  95.874  0.00  0.00     0.028 A 
HETATM   14  C   UNK     0     137.766 112.552  92.109  0.00  0.00     0.271 C 
HETATM   15  C   UNK     0     140.536 109.928  93.855  0.00  0.00     0.007 A 
HETATM   16  C   UNK     0     135.196 115.642  93.316  0.00  0.00     0.007 A 
HETATM   17  C   UNK     0     140.869 109.912  95.359  0.00  0.00     0.005 A 
HETATM   18  C   UNK     0     135.063 116.126  94.772  0.00  0.00     0.005 A 
ENDROOT
TORSDOF 0
ENDMDL
MODEL 10
REMARK VINA RESULT:      -6.5     33.233     35.149
REMARK  0 active torsions:
REMARK  status: ('A' for Active; 'I' for Inactive)
REMARK       I    between atoms: N_2  and  C_14 
ROOT
HETATM    1  O   UNK     0     116.431 132.936 118.795  0.00  0.00    -0.154 OA
HETATM    2  N   UNK     0     116.487 134.743 120.608  0.00  0.00    -0.283 N 
HETATM    3  N   UNK     0     118.445 133.110 120.367  0.00  0.00    -0.053 NA
HETATM    4  C   UNK     0     115.164 135.150 120.087  0.00  0.00     0.040 A 
HETATM    5  C   UNK     0     117.260 135.331 121.723  0.00  0.00     0.040 A 
HETATM    6  C   UNK     0     114.287 136.246 120.553  0.00  0.00    -0.010 A 
HETATM    7  C   UNK     0     116.900 136.472 122.593  0.00  0.00    -0.010 A 
HETATM    8  C   UNK     0     114.517 137.205 121.655  0.00  0.00    -0.003 A 
HETATM    9  C   UNK     0     115.679 137.306 122.562  0.00  0.00    -0.003 A 
HETATM   10  C   UNK     0     114.746 134.249 118.912  0.00  0.00     0.044 A 
HETATM   11  C   UNK     0     118.591 134.581 121.913  0.00  0.00     0.044 A 
HETATM   12  C   UNK     0     112.932 136.516 119.875  0.00  0.00     0.028 A 
HETATM   13  C   UNK     0     117.848 136.941 123.713  0.00  0.00     0.028 A 
HETATM   14  C   UNK     0     117.121 133.596 119.923  0.00  0.00     0.271 C 
HETATM   15  C   UNK     0     113.396 134.491 118.211  0.00  0.00     0.007 A 
HETATM   16  C   UNK     0     119.562 135.025 123.023  0.00  0.00     0.007 A 
HETATM   17  C   UNK     0     112.483 135.633 118.697  0.00  0.00     0.005 A 
HETATM   18  C   UNK     0     119.187 136.213 123.930  0.00  0.00     0.005 A 
ENDROOT
TORSDOF 0
ENDMDL
