REMARK  0 active torsions:
REMARK  status: ('A' for Active; 'I' for Inactive)
REMARK       I    between atoms: N_2  and  C_14 
ROOT
HETATM    1  O   UNK     0       8.500  -2.270   0.000  0.00  0.00    -0.154 OA
HETATM    2  N   UNK     0       7.220  -0.052   0.000  0.00  0.00    -0.283 N 
HETATM    3  N   UNK     0       5.939  -2.270   0.000  0.00  0.00    -0.053 NA
HETATM    4  C   UNK     0       8.552   0.589   0.000  0.00  0.00     0.040 A 
HETATM    5  C   UNK     0       5.887   0.589   0.000  0.00  0.00     0.040 A 
HETATM    6  C   UNK     0       8.881   2.031   0.000  0.00  0.00    -0.010 A 
HETATM    7  C   UNK     0       5.559   2.031   0.000  0.00  0.00    -0.010 A 
HETATM    8  C   UNK     0       7.959   3.187   0.000  0.00  0.00    -0.003 A 
HETATM    9  C   UNK     0       6.481   3.187   0.000  0.00  0.00    -0.003 A 
HETATM   10  C   UNK     0       9.664  -0.475   0.000  0.00  0.00     0.044 A 
HETATM   11  C   UNK     0       4.775  -0.475   0.000  0.00  0.00     0.044 A 
HETATM   12  C   UNK     0      10.345   2.507   0.000  0.00  0.00     0.028 A 
HETATM   13  C   UNK     0       4.094   2.507   0.000  0.00  0.00     0.028 A 
HETATM   14  C   UNK     0       7.220  -1.531   0.000  0.00  0.00     0.271 C 
HETATM   15  C   UNK     0      11.140  -0.033   0.000  0.00  0.00     0.007 A 
HETATM   16  C   UNK     0       3.300  -0.033   0.000  0.00  0.00     0.007 A 
HETATM   17  C   UNK     0      11.482   1.469   0.000  0.00  0.00     0.005 A 
HETATM   18  C   UNK     0       2.957   1.469   0.000  0.00  0.00     0.005 A 
ENDROOT
TORSDOF 0
