MODEL 1
REMARK VINA RESULT:      -7.4      0.000      0.000
REMARK  1 active torsions:
REMARK  status: ('A' for Active; 'I' for Inactive)
REMARK    1  A    between atoms: N_7  and  C_15 
ROOT
HETATM    1 Cl   UNK     0     126.017 130.934 122.170  0.00  0.00    -0.143 Cl
HETATM    2  O   UNK     0     126.918 123.496 122.806  0.00  0.00    -0.168 OA
HETATM    3  N   UNK     0     127.573 125.997 123.142  0.00  0.00    -0.223 NA
HETATM    4  N   UNK     0     124.621 126.595 121.439  0.00  0.00    -0.240 NA
HETATM    5  C   UNK     0     126.437 128.433 122.451  0.00  0.00     0.042 A 
HETATM    6  C   UNK     0     127.516 127.536 123.085  0.00  0.00     0.064 A 
HETATM    7  C   UNK     0     125.149 128.015 121.719  0.00  0.00     0.080 A 
HETATM    8  C   UNK     0     124.272 129.168 121.197  0.00  0.00     0.001 A 
HETATM    9  C   UNK     0     126.564 130.032 122.498  0.00  0.00     0.067 A 
HETATM   10  C   UNK     0     128.797 128.174 123.809  0.00  0.00     0.052 A 
HETATM   11  C   UNK     0     125.251 125.243 121.822  0.00  0.00     0.146 A 
HETATM   12  C   UNK     0     127.832 130.703 123.214  0.00  0.00     0.114 A 
HETATM   13  C   UNK     0     126.565 124.977 122.580  0.00  0.00     0.232 A 
HETATM   14  C   UNK     0     128.956 129.768 123.874  0.00  0.00     0.058 A 
HETATM   15  C   UNK     0     124.706 130.628 121.423  0.00  0.00     0.022 A 
HETATM   16  C   UNK     0     122.960 128.861 120.450  0.00  0.00     0.028 A 
HETATM   17  C   UNK     0     123.829 131.782 120.901  0.00  0.00     0.037 A 
HETATM   18  C   UNK     0     122.083 130.015 119.929  0.00  0.00     0.005 A 
HETATM   19  C   UNK     0     122.518 131.475 120.154  0.00  0.00     0.006 A 
ENDROOT
BRANCH  12  20
HETATM   20  N   UNK     0     127.969 132.237 123.268  0.00  0.00    -0.117 N 
HETATM   21  O   UNK     0     128.665 132.988 122.119  0.00  0.00    -0.532 OA
HETATM   22  O   UNK     0     127.410 133.017 124.472  0.00  0.00    -0.532 OA
ENDBRANCH  12  20
TORSDOF 1
ENDMDL
MODEL 2
REMARK VINA RESULT:      -6.9     24.505     28.456
REMARK  1 active torsions:
REMARK  status: ('A' for Active; 'I' for Inactive)
REMARK    1  A    between atoms: N_7  and  C_15 
ROOT
HETATM    1 Cl   UNK     0     134.281 100.467 121.594  0.00  0.00    -0.143 Cl
HETATM    2  O   UNK     0     134.158 107.962 122.199  0.00  0.00    -0.168 OA
HETATM    3  N   UNK     0     135.159 105.577 122.525  0.00  0.00    -0.223 NA
HETATM    4  N   UNK     0     132.283 104.569 120.885  0.00  0.00    -0.240 NA
HETATM    5  C   UNK     0     134.356 103.004 121.862  0.00  0.00     0.042 A 
HETATM    6  C   UNK     0     135.314 104.045 122.472  0.00  0.00     0.064 A 
HETATM    7  C   UNK     0     133.008 103.237 121.156  0.00  0.00     0.080 A 
HETATM    8  C   UNK     0     132.289 101.971 120.655  0.00  0.00     0.001 A 
HETATM    9  C   UNK     0     134.704 101.438 121.910  0.00  0.00     0.067 A 
HETATM   10  C   UNK     0     136.685 103.593 123.171  0.00  0.00     0.052 A 
HETATM   11  C   UNK     0     132.729 105.997 121.253  0.00  0.00     0.146 A 
HETATM   12  C   UNK     0     136.067 100.951 122.601  0.00  0.00     0.114 A 
HETATM   13  C   UNK     0     134.009 106.445 121.983  0.00  0.00     0.232 A 
HETATM   14  C   UNK     0     137.064 102.036 123.235  0.00  0.00     0.058 A 
HETATM   15  C   UNK     0     132.925 100.586 120.874  0.00  0.00     0.022 A 
HETATM   16  C   UNK     0     130.932 102.091 119.935  0.00  0.00     0.028 A 
HETATM   17  C   UNK     0     132.205  99.320 120.373  0.00  0.00     0.037 A 
HETATM   18  C   UNK     0     130.213 100.824 119.433  0.00  0.00     0.005 A 
HETATM   19  C   UNK     0     130.850  99.440 119.653  0.00  0.00     0.006 A 
ENDROOT
BRANCH  12  20
HETATM   20  N   UNK     0     136.416  99.452 122.654  0.00  0.00    -0.117 N 
HETATM   21  O   UNK     0     137.235  98.811 121.519  0.00  0.00    -0.532 OA
HETATM   22  O   UNK     0     135.945  98.595 123.844  0.00  0.00    -0.532 OA
ENDBRANCH  12  20
TORSDOF 1
ENDMDL
MODEL 3
REMARK VINA RESULT:      -6.8     42.894     46.233
REMARK  1 active torsions:
REMARK  status: ('A' for Active; 'I' for Inactive)
REMARK    1  A    between atoms: N_7  and  C_15 
ROOT
HETATM    1 Cl   UNK     0     114.603  90.163 103.397  0.00  0.00    -0.143 Cl
HETATM    2  O   UNK     0     108.761  86.159 100.867  0.00  0.00    -0.168 OA
HETATM    3  N   UNK     0     111.197  86.507 101.731  0.00  0.00    -0.223 NA
HETATM    4  N   UNK     0     110.249  89.830 101.896  0.00  0.00    -0.240 NA
HETATM    5  C   UNK     0     112.696  88.695 102.548  0.00  0.00     0.042 A 
HETATM    6  C   UNK     0     112.469  87.200 102.255  0.00  0.00     0.064 A 
HETATM    7  C   UNK     0     111.708  89.865 102.389  0.00  0.00     0.080 A 
HETATM    8  C   UNK     0     112.251  91.255 102.771  0.00  0.00     0.001 A 
HETATM    9  C   UNK     0     114.109  89.221 103.096  0.00  0.00     0.067 A 
HETATM   10  C   UNK     0     113.639  86.128 102.490  0.00  0.00     0.052 A 
HETATM   11  C   UNK     0     109.417  88.616 101.443  0.00  0.00     0.146 A 
HETATM   12  C   UNK     0     115.300  88.176 103.342  0.00  0.00     0.114 A 
HETATM   13  C   UNK     0     109.839  87.137 101.369  0.00  0.00     0.232 A 
HETATM   14  C   UNK     0     115.064  86.620 103.037  0.00  0.00     0.058 A 
HETATM   15  C   UNK     0     113.699  91.404 103.276  0.00  0.00     0.022 A 
HETATM   16  C   UNK     0     111.346  92.495 102.649  0.00  0.00     0.028 A 
HETATM   17  C   UNK     0     114.241  92.793 103.659  0.00  0.00     0.037 A 
HETATM   18  C   UNK     0     111.890  93.885 103.032  0.00  0.00     0.005 A 
HETATM   19  C   UNK     0     113.337  94.033 103.537  0.00  0.00     0.006 A 
ENDROOT
BRANCH  12  20
HETATM   20  N   UNK     0     116.664  88.665 103.868  0.00  0.00    -0.117 N 
HETATM   21  O   UNK     0     116.950  88.666 105.381  0.00  0.00    -0.532 OA
HETATM   22  O   UNK     0     117.739  89.152 102.880  0.00  0.00    -0.532 OA
ENDBRANCH  12  20
TORSDOF 1
ENDMDL
MODEL 4
REMARK VINA RESULT:      -6.8     38.088     41.080
REMARK  1 active torsions:
REMARK  status: ('A' for Active; 'I' for Inactive)
REMARK    1  A    between atoms: N_7  and  C_15 
ROOT
HETATM    1 Cl   UNK     0     162.556 108.861 129.535  0.00  0.00    -0.143 Cl
HETATM    2  O   UNK     0     156.493 110.929 125.595  0.00  0.00    -0.168 OA
HETATM    3  N   UNK     0     158.799 111.292 126.756  0.00  0.00    -0.223 NA
HETATM    4  N   UNK     0     158.482 107.943 127.565  0.00  0.00    -0.240 NA
HETATM    5  C   UNK     0     160.550 109.686 128.190  0.00  0.00     0.042 A 
HETATM    6  C   UNK     0     160.089 111.008 127.548  0.00  0.00     0.064 A 
HETATM    7  C   UNK     0     159.835 108.322 128.198  0.00  0.00     0.080 A 
HETATM    8  C   UNK     0     160.569 107.187 128.935  0.00  0.00     0.001 A 
HETATM    9  C   UNK     0     161.942 109.596 128.982  0.00  0.00     0.067 A 
HETATM   10  C   UNK     0     160.989 112.332 127.654  0.00  0.00     0.052 A 
HETATM   11  C   UNK     0     157.511 108.835 126.770  0.00  0.00     0.146 A 
HETATM   12  C   UNK     0     162.867 110.900 129.106  0.00  0.00     0.114 A 
HETATM   13  C   UNK     0     157.652 110.325 126.409  0.00  0.00     0.232 A 
HETATM   14  C   UNK     0     162.387 112.277 128.438  0.00  0.00     0.058 A 
HETATM   15  C   UNK     0     161.930 107.456 129.604  0.00  0.00     0.022 A 
HETATM   16  C   UNK     0     159.942 105.781 129.003  0.00  0.00     0.028 A 
HETATM   17  C   UNK     0     162.664 106.321 130.341  0.00  0.00     0.037 A 
HETATM   18  C   UNK     0     160.677 104.646 129.741  0.00  0.00     0.005 A 
HETATM   19  C   UNK     0     162.037 104.916 130.409  0.00  0.00     0.006 A 
ENDROOT
BRANCH  12  20
HETATM   20  N   UNK     0     164.207 110.831 129.863  0.00  0.00    -0.117 N 
HETATM   21  O   UNK     0     164.256 111.137 131.372  0.00  0.00    -0.532 OA
HETATM   22  O   UNK     0     165.497 110.456 129.111  0.00  0.00    -0.532 OA
ENDBRANCH  12  20
TORSDOF 1
ENDMDL
MODEL 5
REMARK VINA RESULT:      -6.7     33.148     35.382
REMARK  1 active torsions:
REMARK  status: ('A' for Active; 'I' for Inactive)
REMARK    1  A    between atoms: N_7  and  C_15 
ROOT
HETATM    1 Cl   UNK     0     107.230 120.344  95.735  0.00  0.00    -0.143 Cl
HETATM    2  O   UNK     0     104.791 124.439  89.919  0.00  0.00    -0.168 OA
HETATM    3  N   UNK     0     104.771 123.573  92.378  0.00  0.00    -0.223 NA
HETATM    4  N   UNK     0     107.492 121.708  91.332  0.00  0.00    -0.240 NA
HETATM    5  C   UNK     0     106.307 121.783  93.841  0.00  0.00     0.042 A 
HETATM    6  C   UNK     0     105.162 122.795  93.649  0.00  0.00     0.064 A 
HETATM    7  C   UNK     0     107.344 121.300  92.810  0.00  0.00     0.080 A 
HETATM    8  C   UNK     0     108.368 120.272  93.325  0.00  0.00     0.001 A 
HETATM    9  C   UNK     0     106.550 121.074  95.259  0.00  0.00     0.067 A 
HETATM   10  C   UNK     0     104.181 123.168  94.862  0.00  0.00     0.052 A 
HETATM   11  C   UNK     0     106.639 122.701  90.521  0.00  0.00     0.146 A 
HETATM   12  C   UNK     0     105.588 121.424  96.493  0.00  0.00     0.114 A 
HETATM   13  C   UNK     0     105.428 123.531  90.986  0.00  0.00     0.232 A 
HETATM   14  C   UNK     0     104.395 122.477  96.293  0.00  0.00     0.058 A 
HETATM   15  C   UNK     0     108.312 119.793  94.787  0.00  0.00     0.022 A 
HETATM   16  C   UNK     0     109.450 119.722  92.376  0.00  0.00     0.028 A 
HETATM   17  C   UNK     0     109.336 118.765  95.302  0.00  0.00     0.037 A 
HETATM   18  C   UNK     0     110.475 118.693  92.891  0.00  0.00     0.005 A 
HETATM   19  C   UNK     0     110.417 118.216  94.353  0.00  0.00     0.006 A 
ENDROOT
BRANCH  12  20
HETATM   20  N   UNK     0     105.808 120.752  97.862  0.00  0.00    -0.117 N 
HETATM   21  O   UNK     0     105.148 119.394  98.168  0.00  0.00    -0.532 OA
HETATM   22  O   UNK     0     106.686 121.438  98.924  0.00  0.00    -0.532 OA
ENDBRANCH  12  20
TORSDOF 1
ENDMDL
MODEL 6
REMARK VINA RESULT:      -6.7     41.224     42.511
REMARK  1 active torsions:
REMARK  status: ('A' for Active; 'I' for Inactive)
REMARK    1  A    between atoms: N_7  and  C_15 
ROOT
HETATM    1 Cl   UNK     0     114.506 160.566  96.098  0.00  0.00    -0.143 Cl
HETATM    2  O   UNK     0     111.198 154.969  92.320  0.00  0.00    -0.168 OA
HETATM    3  N   UNK     0     113.218 156.295  93.299  0.00  0.00    -0.223 NA
HETATM    4  N   UNK     0     110.754 158.417  94.480  0.00  0.00    -0.240 NA
HETATM    5  C   UNK     0     113.504 158.616  94.792  0.00  0.00     0.042 A 
HETATM    6  C   UNK     0     114.025 157.377  94.041  0.00  0.00     0.064 A 
HETATM    7  C   UNK     0     112.049 159.079  94.988  0.00  0.00     0.080 A 
HETATM    8  C   UNK     0     111.863 160.375  95.798  0.00  0.00     0.001 A 
HETATM    9  C   UNK     0     114.519 159.633  95.507  0.00  0.00     0.067 A 
HETATM   10  C   UNK     0     115.597 157.069  93.951  0.00  0.00     0.052 A 
HETATM   11  C   UNK     0     110.595 157.129  93.651  0.00  0.00     0.146 A 
HETATM   12  C   UNK     0     116.097 159.355  95.437  0.00  0.00     0.114 A 
HETATM   13  C   UNK     0     111.692 156.184  93.126  0.00  0.00     0.232 A 
HETATM   14  C   UNK     0     116.639 158.064  94.654  0.00  0.00     0.058 A 
HETATM   15  C   UNK     0     113.091 161.119  96.354  0.00  0.00     0.022 A 
HETATM   16  C   UNK     0     110.448 160.928  96.053  0.00  0.00     0.028 A 
HETATM   17  C   UNK     0     112.905 162.415  97.164  0.00  0.00     0.037 A 
HETATM   18  C   UNK     0     110.262 162.224  96.864  0.00  0.00     0.005 A 
HETATM   19  C   UNK     0     111.491 162.967  97.419  0.00  0.00     0.006 A 
ENDROOT
BRANCH  12  20
HETATM   20  N   UNK     0     117.085 160.321  96.117  0.00  0.00    -0.117 N 
HETATM   21  O   UNK     0     117.570 160.043  97.552  0.00  0.00    -0.532 OA
HETATM   22  O   UNK     0     117.588 161.565  95.362  0.00  0.00    -0.532 OA
ENDBRANCH  12  20
TORSDOF 1
ENDMDL
MODEL 7
REMARK VINA RESULT:      -6.6     42.831     45.961
REMARK  1 active torsions:
REMARK  status: ('A' for Active; 'I' for Inactive)
REMARK    1  A    between atoms: N_7  and  C_15 
ROOT
HETATM    1 Cl   UNK     0     111.707  89.996 102.385  0.00  0.00    -0.143 Cl
HETATM    2  O   UNK     0     118.441  87.437 104.540  0.00  0.00    -0.168 OA
HETATM    3  N   UNK     0     116.010  87.223 103.622  0.00  0.00    -0.223 NA
HETATM    4  N   UNK     0     115.970  90.659 104.030  0.00  0.00    -0.240 NA
HETATM    5  C   UNK     0     113.951  89.005 103.086  0.00  0.00     0.042 A 
HETATM    6  C   UNK     0     114.595  87.607 103.150  0.00  0.00     0.064 A 
HETATM    7  C   UNK     0     114.562  90.362 103.477  0.00  0.00     0.080 A 
HETATM    8  C   UNK     0     113.646  91.586 103.292  0.00  0.00     0.001 A 
HETATM    9  C   UNK     0     112.448  89.195 102.558  0.00  0.00     0.067 A 
HETATM   10  C   UNK     0     113.781  86.303 102.691  0.00  0.00     0.052 A 
HETATM   11  C   UNK     0     117.112  89.670 104.328  0.00  0.00     0.146 A 
HETATM   12  C   UNK     0     111.606  87.913 102.091  0.00  0.00     0.114 A 
HETATM   13  C   UNK     0     117.130  88.141 104.146  0.00  0.00     0.232 A 
HETATM   14  C   UNK     0     112.277  86.457 102.158  0.00  0.00     0.058 A 
HETATM   15  C   UNK     0     112.218  91.403 102.745  0.00  0.00     0.022 A 
HETATM   16  C   UNK     0     114.158  92.993 103.653  0.00  0.00     0.028 A 
HETATM   17  C   UNK     0     111.302  92.627 102.560  0.00  0.00     0.037 A 
HETATM   18  C   UNK     0     113.241  94.217 103.467  0.00  0.00     0.005 A 
HETATM   19  C   UNK     0     111.814  94.033 102.921  0.00  0.00     0.006 A 
ENDROOT
BRANCH  12  20
HETATM   20  N   UNK     0     110.161  88.078 101.581  0.00  0.00    -0.117 N 
HETATM   21  O   UNK     0     109.895  88.305 100.082  0.00  0.00    -0.532 OA
HETATM   22  O   UNK     0     108.984  88.016 102.572  0.00  0.00    -0.532 OA
ENDBRANCH  12  20
TORSDOF 1
ENDMDL
MODEL 8
REMARK VINA RESULT:      -6.5     37.543     40.555
REMARK  1 active torsions:
REMARK  status: ('A' for Active; 'I' for Inactive)
REMARK    1  A    between atoms: N_7  and  C_15 
ROOT
HETATM    1 Cl   UNK     0      96.190 101.698 122.432  0.00  0.00    -0.143 Cl
HETATM    2  O   UNK     0      94.992 104.207 129.419  0.00  0.00    -0.168 OA
HETATM    3  N   UNK     0      94.575 102.678 127.348  0.00  0.00    -0.223 NA
HETATM    4  N   UNK     0      97.136 104.537 125.948  0.00  0.00    -0.240 NA
HETATM    5  C   UNK     0      95.688 102.458 124.815  0.00  0.00     0.042 A 
HETATM    6  C   UNK     0      94.712 102.066 125.941  0.00  0.00     0.064 A 
HETATM    7  C   UNK     0      96.766 103.557 124.818  0.00  0.00     0.080 A 
HETATM    8  C   UNK     0      97.582 103.696 123.520  0.00  0.00     0.001 A 
HETATM    9  C   UNK     0      95.670 101.689 123.407  0.00  0.00     0.067 A 
HETATM   10  C   UNK     0      93.653 100.879 125.737  0.00  0.00     0.052 A 
HETATM   11  C   UNK     0      96.519 104.659 127.354  0.00  0.00     0.146 A 
HETATM   12  C   UNK     0      94.624 100.498 123.169  0.00  0.00     0.114 A 
HETATM   13  C   UNK     0      95.379 103.831 127.977  0.00  0.00     0.232 A 
HETATM   14  C   UNK     0      93.609 100.090 124.342  0.00  0.00     0.058 A 
HETATM   15  C   UNK     0      97.295 102.766 122.326  0.00  0.00     0.022 A 
HETATM   16  C   UNK     0      98.687 104.764 123.415  0.00  0.00     0.028 A 
HETATM   17  C   UNK     0      98.111 102.905 121.028  0.00  0.00     0.037 A 
HETATM   18  C   UNK     0      99.504 104.902 122.116  0.00  0.00     0.005 A 
HETATM   19  C   UNK     0      99.215 103.973 120.924  0.00  0.00     0.006 A 
ENDROOT
BRANCH  12  20
HETATM   20  N   UNK     0      94.595  99.750 121.823  0.00  0.00    -0.117 N 
HETATM   21  O   UNK     0      93.635 100.207 120.709  0.00  0.00    -0.532 OA
HETATM   22  O   UNK     0      95.525  98.545 121.592  0.00  0.00    -0.532 OA
ENDBRANCH  12  20
TORSDOF 1
ENDMDL
MODEL 9
REMARK VINA RESULT:      -6.5     30.692     32.440
REMARK  1 active torsions:
REMARK  status: ('A' for Active; 'I' for Inactive)
REMARK    1  A    between atoms: N_7  and  C_15 
ROOT
HETATM    1 Cl   UNK     0     102.865 148.654 116.055  0.00  0.00    -0.143 Cl
HETATM    2  O   UNK     0     104.815 155.030 112.577  0.00  0.00    -0.168 OA
HETATM    3  N   UNK     0     104.233 152.492 112.718  0.00  0.00    -0.223 NA
HETATM    4  N   UNK     0     103.856 153.163 116.091  0.00  0.00    -0.240 NA
HETATM    5  C   UNK     0     103.530 150.750 114.760  0.00  0.00     0.042 A 
HETATM    6  C   UNK     0     103.839 151.121 113.297  0.00  0.00     0.064 A 
HETATM    7  C   UNK     0     103.537 151.659 116.003  0.00  0.00     0.080 A 
HETATM    8  C   UNK     0     103.179 150.973 117.334  0.00  0.00     0.001 A 
HETATM    9  C   UNK     0     103.135 149.248 115.163  0.00  0.00     0.067 A 
HETATM   10  C   UNK     0     103.775 150.015 112.137  0.00  0.00     0.052 A 
HETATM   11  C   UNK     0     104.246 154.130 114.958  0.00  0.00     0.146 A 
HETATM   12  C   UNK     0     103.062 148.118 114.027  0.00  0.00     0.114 A 
HETATM   13  C   UNK     0     104.414 153.831 113.456  0.00  0.00     0.232 A 
HETATM   14  C   UNK     0     103.384 148.504 112.504  0.00  0.00     0.058 A 
HETATM   15  C   UNK     0     102.843 149.470 117.361  0.00  0.00     0.022 A 
HETATM   16  C   UNK     0     103.157 151.790 118.640  0.00  0.00     0.028 A 
HETATM   17  C   UNK     0     102.484 148.784 118.692  0.00  0.00     0.037 A 
HETATM   18  C   UNK     0     102.798 151.103 119.972  0.00  0.00     0.005 A 
HETATM   19  C   UNK     0     102.462 149.601 119.997  0.00  0.00     0.006 A 
ENDROOT
BRANCH  12  20
HETATM   20  N   UNK     0     102.684 146.671 114.397  0.00  0.00    -0.117 N 
HETATM   21  O   UNK     0     103.781 145.670 114.806  0.00  0.00    -0.532 OA
HETATM   22  O   UNK     0     101.211 146.226 114.358  0.00  0.00    -0.532 OA
ENDBRANCH  12  20
TORSDOF 1
ENDMDL
MODEL 10
REMARK VINA RESULT:      -6.5     23.075     25.419
REMARK  1 active torsions:
REMARK  status: ('A' for Active; 'I' for Inactive)
REMARK    1  A    between atoms: N_7  and  C_15 
ROOT
HETATM    1 Cl   UNK     0     151.348 128.675 123.125  0.00  0.00    -0.143 Cl
HETATM    2  O   UNK     0     152.006 121.388 124.858  0.00  0.00    -0.168 OA
HETATM    3  N   UNK     0     152.881 123.748 124.177  0.00  0.00    -0.223 NA
HETATM    4  N   UNK     0     149.533 124.606 124.332  0.00  0.00    -0.240 NA
HETATM    5  C   UNK     0     151.703 126.214 123.696  0.00  0.00     0.042 A 
HETATM    6  C   UNK     0     152.893 125.242 123.806  0.00  0.00     0.064 A 
HETATM    7  C   UNK     0     150.208 125.931 123.930  0.00  0.00     0.080 A 
HETATM    8  C   UNK     0     149.262 127.130 123.736  0.00  0.00     0.001 A 
HETATM    9  C   UNK     0     151.929 127.750 123.290  0.00  0.00     0.067 A 
HETATM   10  C   UNK     0     154.391 125.739 123.518  0.00  0.00     0.052 A 
HETATM   11  C   UNK     0     150.186 123.237 124.599  0.00  0.00     0.146 A 
HETATM   12  C   UNK     0     153.413 128.280 122.996  0.00  0.00     0.114 A 
HETATM   13  C   UNK     0     151.677 122.855 124.530  0.00  0.00     0.232 A 
HETATM   14  C   UNK     0     154.652 127.268 123.111  0.00  0.00     0.058 A 
HETATM   15  C   UNK     0     149.832 128.503 123.334  0.00  0.00     0.022 A 
HETATM   16  C   UNK     0     147.746 126.957 123.946  0.00  0.00     0.028 A 
HETATM   17  C   UNK     0     148.886 129.703 123.140  0.00  0.00     0.037 A 
HETATM   18  C   UNK     0     146.800 128.158 123.752  0.00  0.00     0.005 A 
HETATM   19  C   UNK     0     147.371 129.530 123.349  0.00  0.00     0.006 A 
ENDROOT
BRANCH  12  20
HETATM   20  N   UNK     0     153.647 129.752 122.606  0.00  0.00    -0.117 N 
HETATM   21  O   UNK     0     153.735 130.150 121.121  0.00  0.00    -0.532 OA
HETATM   22  O   UNK     0     153.793 130.824 123.701  0.00  0.00    -0.532 OA
ENDBRANCH  12  20
TORSDOF 1
ENDMDL
