REMARK  7 active torsions:
REMARK  status: ('A' for Active; 'I' for Inactive)
REMARK    1  A    between atoms: N_3  and  C_7 
REMARK    2  A    between atoms: N_4  and  C_10 
REMARK    3  A    between atoms: C_7  and  C_11 
REMARK    4  A    between atoms: C_7  and  C_12 
REMARK    5  A    between atoms: C_10  and  C_13 
REMARK    6  A    between atoms: C_13  and  C_22 
REMARK    7  A    between atoms: C_22  and  C_25 
ROOT
HETATM    1  N   UNK     0       8.415  -2.695   0.000  0.00  0.00    -0.345 N 
HETATM    2  N   UNK     0       8.415   0.385   0.000  0.00  0.00    -0.365 N 
HETATM    3  C   UNK     0       7.081  -1.925   0.000  0.00  0.00     0.125 A 
HETATM    4  C   UNK     0       9.748  -1.925   0.000  0.00  0.00     0.125 A 
HETATM    5  C   UNK     0       7.081  -0.385   0.000  0.00  0.00     0.122 A 
HETATM    6  C   UNK     0       9.748  -0.385   0.000  0.00  0.00     0.122 A 
ENDROOT
BRANCH   1   7
HETATM    7  C   UNK     0       8.415  -4.235   0.000  0.00  0.00     0.040 C 
BRANCH   7   8
HETATM    8  C   UNK     0       7.081  -5.005   0.000  0.00  0.00    -0.029 A 
HETATM    9  C   UNK     0       7.081  -6.545   0.000  0.00  0.00     0.030 A 
HETATM   10  C   UNK     0       5.748  -7.315   0.000  0.00  0.00     0.056 A 
HETATM   11  C   UNK     0       4.414  -6.545   0.000  0.00  0.00     0.096 A 
HETATM   12  F   UNK     0       3.080  -7.315   0.000  0.00  0.00    -0.213 F 
HETATM   13  C   UNK     0       4.414  -5.005   0.000  0.00  0.00     0.056 A 
HETATM   14  C   UNK     0       5.748  -4.235   0.000  0.00  0.00     0.030 A 
ENDBRANCH   7   8
BRANCH   7  15
HETATM   15  C   UNK     0       9.748  -5.005   0.000  0.00  0.00    -0.029 A 
HETATM   16  C   UNK     0      11.082  -4.235   0.000  0.00  0.00     0.030 A 
HETATM   17  C   UNK     0      12.416  -5.005   0.000  0.00  0.00     0.056 A 
HETATM   18  C   UNK     0      12.416  -6.545   0.000  0.00  0.00     0.096 A 
HETATM   19  F   UNK     0      13.750  -7.315   0.000  0.00  0.00    -0.213 F 
HETATM   20  C   UNK     0      11.082  -7.315   0.000  0.00  0.00     0.056 A 
HETATM   21  C   UNK     0       9.748  -6.545   0.000  0.00  0.00     0.030 A 
ENDBRANCH   7  15
ENDBRANCH   1   7
BRANCH   2  22
HETATM   22  C   UNK     0       8.415   1.925   0.000  0.00  0.00     0.097 C 
BRANCH  22  23
HETATM   23  C   UNK     0       9.748   2.695   0.000  0.00  0.00     0.024 C 
BRANCH  23  24
HETATM   24  C   UNK     0       9.748   4.235   0.000  0.00  0.00     0.002 C 
BRANCH  24  25
HETATM   25  C   UNK     0      11.082   5.005   0.000  0.00  0.00     0.000 A 
HETATM   26  C   UNK     0      11.082   6.545   0.000  0.00  0.00     0.000 A 
HETATM   27  C   UNK     0      12.416   7.315   0.000  0.00  0.00     0.000 A 
HETATM   28  C   UNK     0      13.750   6.545   0.000  0.00  0.00     0.000 A 
HETATM   29  C   UNK     0      13.750   5.005   0.000  0.00  0.00     0.000 A 
HETATM   30  C   UNK     0      12.416   4.235   0.000  0.00  0.00     0.000 A 
ENDBRANCH  24  25
ENDBRANCH  23  24
ENDBRANCH  22  23
ENDBRANCH   2  22
TORSDOF 7
