MODEL 1
REMARK VINA RESULT:      -5.3      0.000      0.000
REMARK  1 active torsions:
REMARK  status: ('A' for Active; 'I' for Inactive)
REMARK    1  A    between atoms: C_10  and  C_12 
ROOT
HETATM    1  N   UNK     0     129.798 132.257 131.239  0.00  0.00    -0.105 NA
HETATM    2  C   UNK     0     131.717 134.104 131.378  0.00  0.00     0.056 A 
HETATM    3  C   UNK     0     130.612 134.060 132.449  0.00  0.00     0.009 A 
HETATM    4  C   UNK     0     132.826 135.170 131.458  0.00  0.00     0.009 A 
HETATM    5  C   UNK     0     130.615 135.083 133.601  0.00  0.00     0.001 A 
HETATM    6  C   UNK     0     132.829 136.192 132.610  0.00  0.00     0.001 A 
HETATM    7  C   UNK     0     131.723 136.148 133.681  0.00  0.00     0.000 A 
HETATM    8  C   UNK     0     132.354 133.538 130.095  0.00  0.00     0.056 A 
HETATM    9  C   UNK     0     131.076 132.897 130.667  0.00  0.00     0.053 A 
ENDROOT
BRANCH   8  10
HETATM   10  C   UNK     0     133.632 134.179 129.522  0.00  0.00     0.208 C 
HETATM   11  O   UNK     0     135.009 133.802 130.102  0.00  0.00    -0.644 OA
HETATM   12  O   UNK     0     133.535 135.197 128.370  0.00  0.00    -0.644 OA
ENDBRANCH   8  10
TORSDOF 1
ENDMDL
MODEL 2
REMARK VINA RESULT:      -5.2     28.594     29.918
REMARK  1 active torsions:
REMARK  status: ('A' for Active; 'I' for Inactive)
REMARK    1  A    between atoms: C_10  and  C_12 
ROOT
HETATM    1  N   UNK     0     149.004 123.542 105.417  0.00  0.00    -0.105 NA
HETATM    2  C   UNK     0     148.328 124.940 107.585  0.00  0.00     0.056 A 
HETATM    3  C   UNK     0     149.097 123.615 107.733  0.00  0.00     0.009 A 
HETATM    4  C   UNK     0     147.938 125.748 108.837  0.00  0.00     0.009 A 
HETATM    5  C   UNK     0     149.475 123.096 109.133  0.00  0.00     0.001 A 
HETATM    6  C   UNK     0     148.317 125.229 110.237  0.00  0.00     0.001 A 
HETATM    7  C   UNK     0     149.085 123.903 110.385  0.00  0.00     0.000 A 
HETATM    8  C   UNK     0     147.666 126.005 106.691  0.00  0.00     0.056 A 
HETATM    9  C   UNK     0     148.335 124.774 106.054  0.00  0.00     0.053 A 
ENDROOT
BRANCH   8  10
HETATM   10  C   UNK     0     146.997 127.237 107.329  0.00  0.00     0.208 C 
HETATM   11  O   UNK     0     147.859 128.418 107.815  0.00  0.00    -0.644 OA
HETATM   12  O   UNK     0     145.464 127.290 107.481  0.00  0.00    -0.644 OA
ENDBRANCH   8  10
TORSDOF 1
ENDMDL
MODEL 3
REMARK VINA RESULT:      -5.2     10.897     12.397
REMARK  1 active torsions:
REMARK  status: ('A' for Active; 'I' for Inactive)
REMARK    1  A    between atoms: C_10  and  C_12 
ROOT
HETATM    1  N   UNK     0     127.331 125.552 123.414  0.00  0.00    -0.105 NA
HETATM    2  C   UNK     0     127.345 127.951 122.248  0.00  0.00     0.056 A 
HETATM    3  C   UNK     0     128.014 127.759 123.622  0.00  0.00     0.009 A 
HETATM    4  C   UNK     0     127.353 129.337 121.575  0.00  0.00     0.009 A 
HETATM    5  C   UNK     0     128.691 128.952 124.322  0.00  0.00     0.001 A 
HETATM    6  C   UNK     0     128.030 130.529 122.276  0.00  0.00     0.001 A 
HETATM    7  C   UNK     0     128.699 130.337 123.650  0.00  0.00     0.000 A 
HETATM    8  C   UNK     0     126.568 127.374 121.051  0.00  0.00     0.056 A 
HETATM    9  C   UNK     0     126.950 126.463 122.232  0.00  0.00     0.053 A 
ENDROOT
BRANCH   8  10
HETATM   10  C   UNK     0     126.186 128.285 119.869  0.00  0.00     0.208 C 
HETATM   11  O   UNK     0     127.173 128.489 118.703  0.00  0.00    -0.644 OA
HETATM   12  O   UNK     0     124.817 128.992 119.851  0.00  0.00    -0.644 OA
ENDBRANCH   8  10
TORSDOF 1
ENDMDL
MODEL 4
REMARK VINA RESULT:      -5.1     11.592     13.067
REMARK  1 active torsions:
REMARK  status: ('A' for Active; 'I' for Inactive)
REMARK    1  A    between atoms: C_10  and  C_12 
ROOT
HETATM    1  N   UNK     0     127.712 129.534 124.146  0.00  0.00    -0.105 NA
HETATM    2  C   UNK     0     127.441 127.680 122.247  0.00  0.00     0.056 A 
HETATM    3  C   UNK     0     127.161 127.321 123.718  0.00  0.00     0.009 A 
HETATM    4  C   UNK     0     127.284 126.609 121.151  0.00  0.00     0.009 A 
HETATM    5  C   UNK     0     126.726 125.893 124.093  0.00  0.00     0.001 A 
HETATM    6  C   UNK     0     126.848 125.181 121.526  0.00  0.00     0.001 A 
HETATM    7  C   UNK     0     126.569 124.823 122.998  0.00  0.00     0.000 A 
HETATM    8  C   UNK     0     127.854 128.712 121.181  0.00  0.00     0.056 A 
HETATM    9  C   UNK     0     127.783 129.123 122.663  0.00  0.00     0.053 A 
ENDROOT
BRANCH   8  10
HETATM   10  C   UNK     0     127.925 128.301 119.699  0.00  0.00     0.208 C 
HETATM   11  O   UNK     0     126.695 128.485 118.788  0.00  0.00    -0.644 OA
HETATM   12  O   UNK     0     129.225 127.705 119.125  0.00  0.00    -0.644 OA
ENDBRANCH   8  10
TORSDOF 1
ENDMDL
MODEL 5
REMARK VINA RESULT:      -4.9     25.153     26.440
REMARK  1 active torsions:
REMARK  status: ('A' for Active; 'I' for Inactive)
REMARK    1  A    between atoms: C_10  and  C_12 
ROOT
HETATM    1  N   UNK     0     122.741 125.142 105.039  0.00  0.00    -0.105 NA
HETATM    2  C   UNK     0     123.456 125.627 107.563  0.00  0.00     0.056 A 
HETATM    3  C   UNK     0     123.427 124.181 107.036  0.00  0.00     0.009 A 
HETATM    4  C   UNK     0     123.868 125.907 109.020  0.00  0.00     0.009 A 
HETATM    5  C   UNK     0     123.810 123.015 107.965  0.00  0.00     0.001 A 
HETATM    6  C   UNK     0     124.252 124.741 109.950  0.00  0.00     0.001 A 
HETATM    7  C   UNK     0     124.223 123.294 109.422  0.00  0.00     0.000 A 
HETATM    8  C   UNK     0     123.251 127.136 107.330  0.00  0.00     0.056 A 
HETATM    9  C   UNK     0     122.996 126.139 106.185  0.00  0.00     0.053 A 
ENDROOT
BRANCH   8  10
HETATM   10  C   UNK     0     123.506 128.133 108.476  0.00  0.00     0.208 C 
HETATM   11  O   UNK     0     122.412 128.392 109.530  0.00  0.00    -0.644 OA
HETATM   12  O   UNK     0     124.854 128.872 108.569  0.00  0.00    -0.644 OA
ENDBRANCH   8  10
TORSDOF 1
ENDMDL
MODEL 6
REMARK VINA RESULT:      -4.7     50.210     51.539
REMARK  1 active torsions:
REMARK  status: ('A' for Active; 'I' for Inactive)
REMARK    1  A    between atoms: C_10  and  C_12 
ROOT
HETATM    1  N   UNK     0      83.885 111.669 120.574  0.00  0.00    -0.105 NA
HETATM    2  C   UNK     0      86.352 112.565 120.099  0.00  0.00     0.056 A 
HETATM    3  C   UNK     0      85.170 113.551 120.143  0.00  0.00     0.009 A 
HETATM    4  C   UNK     0      87.777 113.082 119.825  0.00  0.00     0.009 A 
HETATM    5  C   UNK     0      85.413 115.054 119.912  0.00  0.00     0.001 A 
HETATM    6  C   UNK     0      88.019 114.586 119.595  0.00  0.00     0.001 A 
HETATM    7  C   UNK     0      86.837 115.572 119.638  0.00  0.00     0.000 A 
HETATM    8  C   UNK     0      86.894 111.128 120.207  0.00  0.00     0.056 A 
HETATM    9  C   UNK     0      85.389 111.398 120.390  0.00  0.00     0.053 A 
ENDROOT
BRANCH   8  10
HETATM   10  C   UNK     0      88.399 110.857 120.024  0.00  0.00     0.208 C 
HETATM   11  O   UNK     0      89.356 110.974 121.226  0.00  0.00    -0.644 OA
HETATM   12  O   UNK     0      88.949 110.468 118.638  0.00  0.00    -0.644 OA
ENDBRANCH   8  10
TORSDOF 1
ENDMDL
MODEL 7
REMARK VINA RESULT:      -4.6     25.466     26.936
REMARK  1 active torsions:
REMARK  status: ('A' for Active; 'I' for Inactive)
REMARK    1  A    between atoms: C_10  and  C_12 
ROOT
HETATM    1  N   UNK     0     122.860 125.617 105.672  0.00  0.00    -0.105 NA
HETATM    2  C   UNK     0     122.742 124.537 108.109  0.00  0.00     0.056 A 
HETATM    3  C   UNK     0     124.083 125.062 107.564  0.00  0.00     0.009 A 
HETATM    4  C   UNK     0     122.673 123.914 109.516  0.00  0.00     0.009 A 
HETATM    5  C   UNK     0     125.355 124.963 108.425  0.00  0.00     0.001 A 
HETATM    6  C   UNK     0     123.946 123.816 110.377  0.00  0.00     0.001 A 
HETATM    7  C   UNK     0     125.287 124.340 109.831  0.00  0.00     0.000 A 
HETATM    8  C   UNK     0     121.232 124.291 107.926  0.00  0.00     0.056 A 
HETATM    9  C   UNK     0     122.046 124.954 106.799  0.00  0.00     0.053 A 
ENDROOT
BRANCH   8  10
HETATM   10  C   UNK     0     120.418 123.629 109.053  0.00  0.00     0.208 C 
HETATM   11  O   UNK     0     120.167 122.109 109.032  0.00  0.00    -0.644 OA
HETATM   12  O   UNK     0     119.854 124.486 110.203  0.00  0.00    -0.644 OA
ENDBRANCH   8  10
TORSDOF 1
ENDMDL
MODEL 8
REMARK VINA RESULT:      -4.5     25.275     26.753
REMARK  1 active torsions:
REMARK  status: ('A' for Active; 'I' for Inactive)
REMARK    1  A    between atoms: C_10  and  C_12 
ROOT
HETATM    1  N   UNK     0     121.103 122.757 109.523  0.00  0.00    -0.105 NA
HETATM    2  C   UNK     0     123.099 124.173 108.462  0.00  0.00     0.056 A 
HETATM    3  C   UNK     0     123.254 123.556 109.864  0.00  0.00     0.009 A 
HETATM    4  C   UNK     0     124.251 124.991 107.849  0.00  0.00     0.009 A 
HETATM    5  C   UNK     0     124.561 123.755 110.653  0.00  0.00     0.001 A 
HETATM    6  C   UNK     0     125.559 125.190 108.638  0.00  0.00     0.001 A 
HETATM    7  C   UNK     0     125.714 124.572 110.040  0.00  0.00     0.000 A 
HETATM    8  C   UNK     0     122.254 124.415 107.197  0.00  0.00     0.056 A 
HETATM    9  C   UNK     0     121.679 123.586 108.360  0.00  0.00     0.053 A 
ENDROOT
BRANCH   8  10
HETATM   10  C   UNK     0     122.830 125.243 106.034  0.00  0.00     0.208 C 
HETATM   11  O   UNK     0     122.935 126.776 106.156  0.00  0.00    -0.644 OA
HETATM   12  O   UNK     0     123.302 124.541 104.746  0.00  0.00    -0.644 OA
ENDBRANCH   8  10
TORSDOF 1
ENDMDL
MODEL 9
REMARK VINA RESULT:      -4.5     35.340     36.713
REMARK  1 active torsions:
REMARK  status: ('A' for Active; 'I' for Inactive)
REMARK    1  A    between atoms: C_10  and  C_12 
ROOT
HETATM    1  N   UNK     0      96.150 126.733 144.236  0.00  0.00    -0.105 NA
HETATM    2  C   UNK     0      98.006 128.614 143.870  0.00  0.00     0.056 A 
HETATM    3  C   UNK     0      97.881 127.452 142.869  0.00  0.00     0.009 A 
HETATM    4  C   UNK     0      99.078 129.700 143.660  0.00  0.00     0.009 A 
HETATM    5  C   UNK     0      98.826 127.375 141.655  0.00  0.00     0.001 A 
HETATM    6  C   UNK     0     100.024 129.623 142.447  0.00  0.00     0.001 A 
HETATM    7  C   UNK     0      99.898 128.460 141.444  0.00  0.00     0.000 A 
HETATM    8  C   UNK     0      97.533 129.329 145.150  0.00  0.00     0.056 A 
HETATM    9  C   UNK     0      96.841 128.031 144.693  0.00  0.00     0.053 A 
ENDROOT
BRANCH   8  10
HETATM   10  C   UNK     0      98.224 130.627 145.607  0.00  0.00     0.208 C 
HETATM   11  O   UNK     0      99.421 130.564 146.574  0.00  0.00    -0.644 OA
HETATM   12  O   UNK     0      97.719 131.991 145.096  0.00  0.00    -0.644 OA
ENDBRANCH   8  10
TORSDOF 1
ENDMDL
MODEL 10
REMARK VINA RESULT:      -4.5     36.114     36.763
REMARK  1 active torsions:
REMARK  status: ('A' for Active; 'I' for Inactive)
REMARK    1  A    between atoms: C_10  and  C_12 
ROOT
HETATM    1  N   UNK     0     105.988 148.483 115.976  0.00  0.00    -0.105 NA
HETATM    2  C   UNK     0     104.105 149.439 114.346  0.00  0.00     0.056 A 
HETATM    3  C   UNK     0     104.433 147.935 114.344  0.00  0.00     0.009 A 
HETATM    4  C   UNK     0     103.018 149.992 113.405  0.00  0.00     0.009 A 
HETATM    5  C   UNK     0     103.674 146.983 113.401  0.00  0.00     0.001 A 
HETATM    6  C   UNK     0     102.259 149.040 112.463  0.00  0.00     0.001 A 
HETATM    7  C   UNK     0     102.588 147.535 112.461  0.00  0.00     0.000 A 
HETATM    8  C   UNK     0     104.354 150.858 114.892  0.00  0.00     0.056 A 
HETATM    9  C   UNK     0     105.171 149.671 115.434  0.00  0.00     0.053 A 
ENDROOT
BRANCH   8  10
HETATM   10  C   UNK     0     103.537 152.046 114.350  0.00  0.00     0.208 C 
HETATM   11  O   UNK     0     102.220 152.453 115.037  0.00  0.00    -0.644 OA
HETATM   12  O   UNK     0     104.036 152.827 113.119  0.00  0.00    -0.644 OA
ENDBRANCH   8  10
TORSDOF 1
ENDMDL
