MODEL 1
REMARK VINA RESULT:      -7.5      0.000      0.000
REMARK  0 active torsions:
REMARK  status: ('A' for Active; 'I' for Inactive)
ROOT
HETATM    1 Cl   UNK     0     134.113 107.032 121.924  0.00  0.00    -0.100 Cl
HETATM    2 Cl   UNK     0     132.297 105.188 121.817  0.00  0.00    -0.158 Cl
HETATM    3  O   UNK     0     126.164 104.427 118.209  0.00  0.00    -0.165 OA
HETATM    4  O   UNK     0     126.754 107.002 117.070  0.00  0.00    -0.165 OA
HETATM    5  N   UNK     0     129.002 107.374 118.337  0.00  0.00    -0.222 NA
HETATM    6  N   UNK     0     128.292 104.276 119.708  0.00  0.00    -0.217 NA
HETATM    7  C   UNK     0     130.480 105.918 120.181  0.00  0.00     0.011 A 
HETATM    8  C   UNK     0     129.631 104.647 120.374  0.00  0.00     0.077 A 
HETATM    9  C   UNK     0     130.200 107.131 119.275  0.00  0.00     0.059 A 
HETATM   10  C   UNK     0     130.195 103.610 121.363  0.00  0.00     0.001 A 
HETATM   11  C   UNK     0     127.472 105.085 118.684  0.00  0.00     0.257 A 
HETATM   12  C   UNK     0     131.799 105.856 121.090  0.00  0.00     0.059 A 
HETATM   13  C   UNK     0     127.788 106.464 118.075  0.00  0.00     0.257 A 
HETATM   14  C   UNK     0     131.221 108.367 119.216  0.00  0.00     0.048 A 
HETATM   15  C   UNK     0     132.841 107.075 121.056  0.00  0.00     0.128 A 
HETATM   16  C   UNK     0     132.550 108.338 120.113  0.00  0.00     0.036 A 
HETATM   17  C   UNK     0     131.528 103.880 122.085  0.00  0.00     0.019 A 
HETATM   18  C   UNK     0     129.425 102.303 121.630  0.00  0.00     0.028 A 
HETATM   19  C   UNK     0     132.092 102.843 123.074  0.00  0.00     0.036 A 
HETATM   20  C   UNK     0     129.989 101.266 122.619  0.00  0.00     0.005 A 
HETATM   21  C   UNK     0     131.322 101.537 123.341  0.00  0.00     0.006 A 
ENDROOT
TORSDOF 0
ENDMDL
MODEL 2
REMARK VINA RESULT:      -7.5     19.695     22.644
REMARK  0 active torsions:
REMARK  status: ('A' for Active; 'I' for Inactive)
ROOT
HETATM    1 Cl   UNK     0     110.754 116.309 113.857  0.00  0.00    -0.100 Cl
HETATM    2 Cl   UNK     0     112.375 114.699 112.636  0.00  0.00    -0.158 Cl
HETATM    3  O   UNK     0     111.772 110.348 106.986  0.00  0.00    -0.165 OA
HETATM    4  O   UNK     0     109.050 111.262 106.832  0.00  0.00    -0.165 OA
HETATM    5  N   UNK     0     109.167 112.876 108.877  0.00  0.00    -0.222 NA
HETATM    6  N   UNK     0     112.443 111.775 109.063  0.00  0.00    -0.217 NA
HETATM    7  C   UNK     0     111.134 113.599 110.695  0.00  0.00     0.011 A 
HETATM    8  C   UNK     0     112.346 112.766 110.239  0.00  0.00     0.077 A 
HETATM    9  C   UNK     0     109.720 113.649 110.090  0.00  0.00     0.059 A 
HETATM   10  C   UNK     0     113.632 112.946 111.067  0.00  0.00     0.001 A 
HETATM   11  C   UNK     0     111.350 111.374 108.053  0.00  0.00     0.257 A 
HETATM   12  C   UNK     0     111.514 114.491 111.973  0.00  0.00     0.059 A 
HETATM   13  C   UNK     0     109.892 111.864 107.971  0.00  0.00     0.257 A 
HETATM   14  C   UNK     0     108.587 114.593 110.720  0.00  0.00     0.048 A 
HETATM   15  C   UNK     0     110.406 115.446 112.629  0.00  0.00     0.128 A 
HETATM   16  C   UNK     0     108.932 115.497 111.998  0.00  0.00     0.036 A 
HETATM   17  C   UNK     0     113.647 113.913 112.266  0.00  0.00     0.019 A 
HETATM   18  C   UNK     0     114.904 112.160 110.696  0.00  0.00     0.028 A 
HETATM   19  C   UNK     0     114.932 114.093 113.094  0.00  0.00     0.036 A 
HETATM   20  C   UNK     0     116.189 112.340 111.524  0.00  0.00     0.005 A 
HETATM   21  C   UNK     0     116.203 113.307 112.723  0.00  0.00     0.006 A 
ENDROOT
TORSDOF 0
ENDMDL
MODEL 3
REMARK VINA RESULT:      -7.4     18.365     21.308
REMARK  0 active torsions:
REMARK  status: ('A' for Active; 'I' for Inactive)
ROOT
HETATM    1 Cl   UNK     0     146.398 114.271 105.196  0.00  0.00    -0.100 Cl
HETATM    2 Cl   UNK     0     144.465 115.809 105.980  0.00  0.00    -0.158 Cl
HETATM    3  O   UNK     0     139.610 115.441 111.223  0.00  0.00    -0.165 OA
HETATM    4  O   UNK     0     140.841 112.933 111.908  0.00  0.00    -0.165 OA
HETATM    5  N   UNK     0     142.650 112.973 110.030  0.00  0.00    -0.222 NA
HETATM    6  N   UNK     0     141.168 115.990 109.206  0.00  0.00    -0.217 NA
HETATM    7  C   UNK     0     143.319 114.728 107.987  0.00  0.00     0.011 A 
HETATM    8  C   UNK     0     142.291 115.862 108.159  0.00  0.00     0.077 A 
HETATM    9  C   UNK     0     143.479 113.443 108.819  0.00  0.00     0.059 A 
HETATM   10  C   UNK     0     142.399 117.021 107.151  0.00  0.00     0.001 A 
HETATM   11  C   UNK     0     140.797 115.015 110.340  0.00  0.00     0.257 A 
HETATM   12  C   UNK     0     144.294 115.036 106.752  0.00  0.00     0.059 A 
HETATM   13  C   UNK     0     141.456 113.673 110.707  0.00  0.00     0.257 A 
HETATM   14  C   UNK     0     144.625 112.376 108.474  0.00  0.00     0.048 A 
HETATM   15  C   UNK     0     145.452 113.991 106.379  0.00  0.00     0.128 A 
HETATM   16  C   UNK     0     145.619 112.652 107.246  0.00  0.00     0.036 A 
HETATM   17  C   UNK     0     143.486 116.995 106.061  0.00  0.00     0.019 A 
HETATM   18  C   UNK     0     141.419 118.207 107.233  0.00  0.00     0.028 A 
HETATM   19  C   UNK     0     143.595 118.154 105.053  0.00  0.00     0.036 A 
HETATM   20  C   UNK     0     141.527 119.366 106.225  0.00  0.00     0.005 A 
HETATM   21  C   UNK     0     142.615 119.339 105.135  0.00  0.00     0.006 A 
ENDROOT
TORSDOF 0
ENDMDL
MODEL 4
REMARK VINA RESULT:      -7.3     22.978     24.865
REMARK  0 active torsions:
REMARK  status: ('A' for Active; 'I' for Inactive)
ROOT
HETATM    1 Cl   UNK     0     110.678 117.032 106.487  0.00  0.00    -0.100 Cl
HETATM    2 Cl   UNK     0     110.795 115.135 108.247  0.00  0.00    -0.158 Cl
HETATM    3  O   UNK     0     109.300 114.710 115.232  0.00  0.00    -0.165 OA
HETATM    4  O   UNK     0     108.578 117.487 115.037  0.00  0.00    -0.165 OA
HETATM    5  N   UNK     0     109.094 117.746 112.494  0.00  0.00    -0.222 NA
HETATM    6  N   UNK     0     109.962 114.404 112.729  0.00  0.00    -0.217 NA
HETATM    7  C   UNK     0     110.022 116.054 110.498  0.00  0.00     0.011 A 
HETATM    8  C   UNK     0     110.218 114.720 111.243  0.00  0.00     0.077 A 
HETATM    9  C   UNK     0     109.522 117.400 111.055  0.00  0.00     0.059 A 
HETATM   10  C   UNK     0     110.738 113.549 110.390  0.00  0.00     0.001 A 
HETATM   11  C   UNK     0     109.447 115.343 113.836  0.00  0.00     0.257 A 
HETATM   12  C   UNK     0     110.421 115.899 108.953  0.00  0.00     0.059 A 
HETATM   13  C   UNK     0     109.061 116.830 113.731  0.00  0.00     0.257 A 
HETATM   14  C   UNK     0     109.386 118.685 110.104  0.00  0.00     0.048 A 
HETATM   15  C   UNK     0     110.298 117.163 107.974  0.00  0.00     0.128 A 
HETATM   16  C   UNK     0     109.777 118.565 108.553  0.00  0.00     0.036 A 
HETATM   17  C   UNK     0     111.027 113.755 108.892  0.00  0.00     0.019 A 
HETATM   18  C   UNK     0     110.970 112.169 111.036  0.00  0.00     0.028 A 
HETATM   19  C   UNK     0     111.548 112.584 108.039  0.00  0.00     0.036 A 
HETATM   20  C   UNK     0     111.491 110.998 110.183  0.00  0.00     0.005 A 
HETATM   21  C   UNK     0     111.779 111.205 108.685  0.00  0.00     0.006 A 
ENDROOT
TORSDOF 0
ENDMDL
MODEL 5
REMARK VINA RESULT:      -7.1     28.954     30.494
REMARK  0 active torsions:
REMARK  status: ('A' for Active; 'I' for Inactive)
ROOT
HETATM    1 Cl   UNK     0     149.705 121.718 104.263  0.00  0.00    -0.100 Cl
HETATM    2 Cl   UNK     0     149.179 123.106 106.386  0.00  0.00    -0.158 Cl
HETATM    3  O   UNK     0     146.094 129.456 107.558  0.00  0.00    -0.165 OA
HETATM    4  O   UNK     0     145.792 129.605 104.702  0.00  0.00    -0.165 OA
HETATM    5  N   UNK     0     146.901 127.306 104.169  0.00  0.00    -0.222 NA
HETATM    6  N   UNK     0     147.264 127.126 107.606  0.00  0.00    -0.217 NA
HETATM    7  C   UNK     0     148.036 125.278 105.685  0.00  0.00     0.011 A 
HETATM    8  C   UNK     0     147.888 125.802 107.126  0.00  0.00     0.077 A 
HETATM    9  C   UNK     0     147.597 125.946 104.370  0.00  0.00     0.059 A 
HETATM   10  C   UNK     0     148.437 124.882 108.232  0.00  0.00     0.001 A 
HETATM   11  C   UNK     0     146.634 128.251 106.764  0.00  0.00     0.257 A 
HETATM   12  C   UNK     0     148.754 123.843 105.680  0.00  0.00     0.059 A 
HETATM   13  C   UNK     0     146.472 128.332 105.235  0.00  0.00     0.257 A 
HETATM   14  C   UNK     0     147.845 125.227 102.958  0.00  0.00     0.048 A 
HETATM   15  C   UNK     0     149.017 123.096 104.286  0.00  0.00     0.128 A 
HETATM   16  C   UNK     0     148.560 123.793 102.916  0.00  0.00     0.036 A 
HETATM   17  C   UNK     0     149.082 123.533 107.862  0.00  0.00     0.019 A 
HETATM   18  C   UNK     0     148.340 125.310 109.709  0.00  0.00     0.028 A 
HETATM   19  C   UNK     0     149.631 122.613 108.969  0.00  0.00     0.036 A 
HETATM   20  C   UNK     0     148.888 124.390 110.815  0.00  0.00     0.005 A 
HETATM   21  C   UNK     0     149.534 123.041 110.444  0.00  0.00     0.006 A 
ENDROOT
TORSDOF 0
ENDMDL
MODEL 6
REMARK VINA RESULT:      -7.1     21.582     23.879
REMARK  0 active torsions:
REMARK  status: ('A' for Active; 'I' for Inactive)
ROOT
HETATM    1 Cl   UNK     0     121.379 128.081 120.706  0.00  0.00    -0.100 Cl
HETATM    2 Cl   UNK     0     123.208 126.944 122.145  0.00  0.00    -0.158 Cl
HETATM    3  O   UNK     0     129.545 129.040 124.726  0.00  0.00    -0.165 OA
HETATM    4  O   UNK     0     129.009 131.553 123.434  0.00  0.00    -0.165 OA
HETATM    5  N   UNK     0     126.688 130.886 122.448  0.00  0.00    -0.222 NA
HETATM    6  N   UNK     0     127.334 127.863 124.003  0.00  0.00    -0.217 NA
HETATM    7  C   UNK     0     125.113 128.602 122.511  0.00  0.00     0.011 A 
HETATM    8  C   UNK     0     125.956 127.627 123.355  0.00  0.00     0.077 A 
HETATM    9  C   UNK     0     125.439 130.052 122.108  0.00  0.00     0.059 A 
HETATM   10  C   UNK     0     125.341 126.234 123.579  0.00  0.00     0.001 A 
HETATM   11  C   UNK     0     128.207 129.131 123.968  0.00  0.00     0.257 A 
HETATM   12  C   UNK     0     123.744 127.907 122.050  0.00  0.00     0.059 A 
HETATM   13  C   UNK     0     127.920 130.476 123.276  0.00  0.00     0.257 A 
HETATM   14  C   UNK     0     124.417 130.907 121.215  0.00  0.00     0.048 A 
HETATM   15  C   UNK     0     122.699 128.733 121.157  0.00  0.00     0.128 A 
HETATM   16  C   UNK     0     123.038 130.243 120.737  0.00  0.00     0.036 A 
HETATM   17  C   UNK     0     123.967 125.892 122.975  0.00  0.00     0.019 A 
HETATM   18  C   UNK     0     126.101 125.181 124.409  0.00  0.00     0.028 A 
HETATM   19  C   UNK     0     123.352 124.498 123.199  0.00  0.00     0.036 A 
HETATM   20  C   UNK     0     125.486 123.788 124.634  0.00  0.00     0.005 A 
HETATM   21  C   UNK     0     124.111 123.446 124.029  0.00  0.00     0.006 A 
ENDROOT
TORSDOF 0
ENDMDL
MODEL 7
REMARK VINA RESULT:      -7.1     21.470     22.328
REMARK  0 active torsions:
REMARK  status: ('A' for Active; 'I' for Inactive)
ROOT
HETATM    1 Cl   UNK     0     114.951 119.250 134.527  0.00  0.00    -0.100 Cl
HETATM    2 Cl   UNK     0     116.538 118.432 132.649  0.00  0.00    -0.158 Cl
HETATM    3  O   UNK     0     121.639 121.551 128.718  0.00  0.00    -0.165 OA
HETATM    4  O   UNK     0     121.032 123.941 130.198  0.00  0.00    -0.165 OA
HETATM    5  N   UNK     0     119.157 122.898 131.681  0.00  0.00    -0.222 NA
HETATM    6  N   UNK     0     119.888 120.023 129.899  0.00  0.00    -0.217 NA
HETATM    7  C   UNK     0     118.004 120.384 131.906  0.00  0.00     0.011 A 
HETATM    8  C   UNK     0     118.765 119.562 130.848  0.00  0.00     0.077 A 
HETATM    9  C   UNK     0     118.179 121.868 132.276  0.00  0.00     0.059 A 
HETATM   10  C   UNK     0     118.348 118.085 130.722  0.00  0.00     0.001 A 
HETATM   11  C   UNK     0     120.528 121.419 129.775  0.00  0.00     0.257 A 
HETATM   12  C   UNK     0     116.918 119.471 132.652  0.00  0.00     0.059 A 
HETATM   13  C   UNK     0     120.202 122.698 130.568  0.00  0.00     0.257 A 
HETATM   14  C   UNK     0     117.278 122.542 133.420  0.00  0.00     0.048 A 
HETATM   15  C   UNK     0     116.000 120.112 133.800  0.00  0.00     0.128 A 
HETATM   16  C   UNK     0     116.182 121.658 134.186  0.00  0.00     0.036 A 
HETATM   17  C   UNK     0     117.234 117.520 131.622  0.00  0.00     0.019 A 
HETATM   18  C   UNK     0     119.044 117.173 129.694  0.00  0.00     0.028 A 
HETATM   19  C   UNK     0     116.816 116.043 131.496  0.00  0.00     0.036 A 
HETATM   20  C   UNK     0     118.627 115.696 129.568  0.00  0.00     0.005 A 
HETATM   21  C   UNK     0     117.513 115.132 130.469  0.00  0.00     0.006 A 
ENDROOT
TORSDOF 0
ENDMDL
MODEL 8
REMARK VINA RESULT:      -7.1     21.594     24.244
REMARK  0 active torsions:
REMARK  status: ('A' for Active; 'I' for Inactive)
ROOT
HETATM    1 Cl   UNK     0     127.725 132.284 122.974  0.00  0.00    -0.100 Cl
HETATM    2 Cl   UNK     0     125.784 130.878 121.992  0.00  0.00    -0.158 Cl
HETATM    3  O   UNK     0     124.441 123.864 121.530  0.00  0.00    -0.165 OA
HETATM    4  O   UNK     0     126.955 123.503 122.879  0.00  0.00    -0.165 OA
HETATM    5  N   UNK     0     127.536 126.035 123.098  0.00  0.00    -0.222 NA
HETATM    6  N   UNK     0     124.511 126.470 121.474  0.00  0.00    -0.217 NA
HETATM    7  C   UNK     0     126.297 128.404 122.354  0.00  0.00     0.011 A 
HETATM    8  C   UNK     0     125.000 127.916 121.682  0.00  0.00     0.077 A 
HETATM    9  C   UNK     0     127.425 127.568 122.984  0.00  0.00     0.059 A 
HETATM   10  C   UNK     0     124.068 129.019 121.147  0.00  0.00     0.001 A 
HETATM   11  C   UNK     0     125.200 125.155 121.887  0.00  0.00     0.257 A 
HETATM   12  C   UNK     0     126.371 130.006 122.336  0.00  0.00     0.059 A 
HETATM   13  C   UNK     0     126.546 124.962 122.610  0.00  0.00     0.257 A 
HETATM   14  C   UNK     0     128.707 128.275 123.640  0.00  0.00     0.048 A 
HETATM   15  C   UNK     0     127.638 130.747 122.983  0.00  0.00     0.128 A 
HETATM   16  C   UNK     0     128.813 129.875 123.639  0.00  0.00     0.036 A 
HETATM   17  C   UNK     0     124.460 130.501 121.302  0.00  0.00     0.019 A 
HETATM   18  C   UNK     0     122.744 128.641 120.456  0.00  0.00     0.028 A 
HETATM   19  C   UNK     0     123.528 131.604 120.767  0.00  0.00     0.036 A 
HETATM   20  C   UNK     0     121.812 129.744 119.921  0.00  0.00     0.005 A 
HETATM   21  C   UNK     0     122.205 131.226 120.077  0.00  0.00     0.006 A 
ENDROOT
TORSDOF 0
ENDMDL
MODEL 9
REMARK VINA RESULT:      -7.0     27.135     29.680
REMARK  0 active torsions:
REMARK  status: ('A' for Active; 'I' for Inactive)
ROOT
HETATM    1 Cl   UNK     0     109.080  88.783 101.511  0.00  0.00    -0.100 Cl
HETATM    2 Cl   UNK     0     111.021  90.303 102.305  0.00  0.00    -0.158 Cl
HETATM    3  O   UNK     0     117.761  89.108 104.393  0.00  0.00    -0.165 OA
HETATM    4  O   UNK     0     117.196  86.327 103.922  0.00  0.00    -0.165 OA
HETATM    5  N   UNK     0     114.728  86.657 103.146  0.00  0.00    -0.222 NA
HETATM    6  N   UNK     0     115.408  90.003 103.714  0.00  0.00    -0.217 NA
HETATM    7  C   UNK     0     113.050  88.843 102.820  0.00  0.00     0.011 A 
HETATM    8  C   UNK     0     113.944  90.027 103.236  0.00  0.00     0.077 A 
HETATM    9  C   UNK     0     113.399  87.344 102.780  0.00  0.00     0.059 A 
HETATM   10  C   UNK     0     113.287  91.418 103.164  0.00  0.00     0.001 A 
HETATM   11  C   UNK     0     116.339  88.789 103.894  0.00  0.00     0.257 A 
HETATM   12  C   UNK     0     111.593  89.361 102.396  0.00  0.00     0.059 A 
HETATM   13  C   UNK     0     116.037  87.300 103.641  0.00  0.00     0.257 A 
HETATM   14  C   UNK     0     112.315  86.259 102.313  0.00  0.00     0.048 A 
HETATM   15  C   UNK     0     110.484  88.303 101.923  0.00  0.00     0.128 A 
HETATM   16  C   UNK     0     110.848  86.742 101.881  0.00  0.00     0.036 A 
HETATM   17  C   UNK     0     111.826  91.557 102.698  0.00  0.00     0.019 A 
HETATM   18  C   UNK     0     114.092  92.671 103.557  0.00  0.00     0.028 A 
HETATM   19  C   UNK     0     111.169  92.948 102.626  0.00  0.00     0.036 A 
HETATM   20  C   UNK     0     113.436  94.062 103.485  0.00  0.00     0.005 A 
HETATM   21  C   UNK     0     111.974  94.200 103.020  0.00  0.00     0.006 A 
ENDROOT
TORSDOF 0
ENDMDL
MODEL 10
REMARK VINA RESULT:      -7.0     21.957     22.843
REMARK  0 active torsions:
REMARK  status: ('A' for Active; 'I' for Inactive)
ROOT
HETATM    1 Cl   UNK     0     116.645 119.702 135.076  0.00  0.00    -0.100 Cl
HETATM    2 Cl   UNK     0     116.879 118.943 132.611  0.00  0.00    -0.158 Cl
HETATM    3  O   UNK     0     117.264 122.381 126.347  0.00  0.00    -0.165 OA
HETATM    4  O   UNK     0     117.041 124.796 127.893  0.00  0.00    -0.165 OA
HETATM    5  N   UNK     0     116.893 123.638 130.224  0.00  0.00    -0.222 NA
HETATM    6  N   UNK     0     117.161 120.732 128.364  0.00  0.00    -0.217 NA
HETATM    7  C   UNK     0     116.922 121.010 131.116  0.00  0.00     0.011 A 
HETATM    8  C   UNK     0     117.062 120.207 129.809  0.00  0.00     0.077 A 
HETATM    9  C   UNK     0     116.847 122.537 131.301  0.00  0.00     0.059 A 
HETATM   10  C   UNK     0     117.109 118.676 129.967  0.00  0.00     0.001 A 
HETATM   11  C   UNK     0     117.145 122.191 127.870  0.00  0.00     0.257 A 
HETATM   12  C   UNK     0     116.856 120.023 132.378  0.00  0.00     0.059 A 
HETATM   13  C   UNK     0     117.026 123.484 128.698  0.00  0.00     0.257 A 
HETATM   14  C   UNK     0     116.701 123.183 132.761  0.00  0.00     0.048 A 
HETATM   15  C   UNK     0     116.710 120.635 133.853  0.00  0.00     0.128 A 
HETATM   16  C   UNK     0     116.632 122.225 134.046  0.00  0.00     0.036 A 
HETATM   17  C   UNK     0     117.018 118.043 131.369  0.00  0.00     0.019 A 
HETATM   18  C   UNK     0     117.247 117.776 128.724  0.00  0.00     0.028 A 
HETATM   19  C   UNK     0     117.064 116.512 131.527  0.00  0.00     0.036 A 
HETATM   20  C   UNK     0     117.294 116.245 128.882  0.00  0.00     0.005 A 
HETATM   21  C   UNK     0     117.203 115.614 130.284  0.00  0.00     0.006 A 
ENDROOT
TORSDOF 0
ENDMDL
