REMARK  0 active torsions:
REMARK  status: ('A' for Active; 'I' for Inactive)
ROOT
HETATM    1 Cl   UNK     0       4.754  -4.439   0.000  0.00  0.00    -0.100 Cl
HETATM    2 Cl   UNK     0       6.735  -2.770   0.000  0.00  0.00    -0.158 Cl
HETATM    3  O   UNK     0       7.245   4.368   0.000  0.00  0.00    -0.165 OA
HETATM    4  O   UNK     0       4.369   4.368   0.000  0.00  0.00    -0.165 OA
HETATM    5  N   UNK     0       4.076   1.777   0.000  0.00  0.00    -0.222 NA
HETATM    6  N   UNK     0       7.537   1.777   0.000  0.00  0.00    -0.217 NA
HETATM    7  C   UNK     0       5.806  -0.393   0.000  0.00  0.00     0.011 A 
HETATM    8  C   UNK     0       7.194   0.275   0.000  0.00  0.00     0.077 A 
HETATM    9  C   UNK     0       4.419   0.275   0.000  0.00  0.00     0.059 A 
HETATM   10  C   UNK     0       8.398  -0.685   0.000  0.00  0.00     0.001 A 
HETATM   11  C   UNK     0       6.576   2.981   0.000  0.00  0.00     0.257 A 
HETATM   12  C   UNK     0       5.951  -1.990   0.000  0.00  0.00     0.059 A 
HETATM   13  C   UNK     0       5.036   2.981   0.000  0.00  0.00     0.257 A 
HETATM   14  C   UNK     0       3.080  -0.608   0.000  0.00  0.00     0.048 A 
HETATM   15  C   UNK     0       4.633  -2.904   0.000  0.00  0.00     0.128 A 
HETATM   16  C   UNK     0       3.188  -2.208   0.000  0.00  0.00     0.036 A 
HETATM   17  C   UNK     0       8.169  -2.208   0.000  0.00  0.00     0.019 A 
HETATM   18  C   UNK     0       9.832  -0.122   0.000  0.00  0.00     0.028 A 
HETATM   19  C   UNK     0       9.373  -3.168   0.000  0.00  0.00     0.036 A 
HETATM   20  C   UNK     0      11.036  -1.082   0.000  0.00  0.00     0.005 A 
HETATM   21  C   UNK     0      10.806  -2.605   0.000  0.00  0.00     0.006 A 
ENDROOT
TORSDOF 0
