MODEL 1
REMARK VINA RESULT:      -6.0      0.000      0.000
REMARK  1 active torsions:
REMARK  status: ('A' for Active; 'I' for Inactive)
REMARK    1  A    between atoms: C_10  and  C_11 
ROOT
HETATM    1  N   UNK     0     161.756 105.067 129.910  0.00  0.00    -0.348 N 
HETATM    2  C   UNK     0     159.716 106.144 128.944  0.00  0.00     0.021 A 
HETATM    3  C   UNK     0     160.782 105.692 129.425  0.00  0.00     0.083 A 
HETATM    4  C   UNK     0     161.423 109.101 128.895  0.00  0.00     0.004 A 
HETATM    5  C   UNK     0     161.814 107.975 129.284  0.00  0.00     0.019 A 
HETATM    6  C   UNK     0     160.047 109.484 128.320  0.00  0.00     0.002 A 
HETATM    7  C   UNK     0     163.723 109.766 129.566  0.00  0.00     0.000 A 
HETATM    8  C   UNK     0     164.113 108.640 129.955  0.00  0.00     0.002 A 
HETATM    9  C   UNK     0     158.583 106.412 128.482  0.00  0.00     0.004 A 
HETATM   10  C   UNK     0     159.041 105.087 128.939  0.00  0.00     0.024 A 
HETATM   11  C   UNK     0     160.441 104.494 129.569  0.00  0.00     0.100 A 
HETATM   12  C   UNK     0     162.827 105.669 130.158  0.00  0.00     0.090 C 
ENDROOT
TORSDOF 1
ENDMDL
MODEL 2
REMARK VINA RESULT:      -5.9     27.544     29.339
REMARK  1 active torsions:
REMARK  status: ('A' for Active; 'I' for Inactive)
REMARK    1  A    between atoms: C_10  and  C_11 
ROOT
HETATM    1  N   UNK     0     143.529 114.467 107.431  0.00  0.00    -0.348 N 
HETATM    2  C   UNK     0     142.549 114.178 109.713  0.00  0.00     0.021 A 
HETATM    3  C   UNK     0     142.997 114.411 108.566  0.00  0.00     0.083 A 
HETATM    4  C   UNK     0     141.155 117.279 109.397  0.00  0.00     0.004 A 
HETATM    5  C   UNK     0     141.870 116.652 108.580  0.00  0.00     0.019 A 
HETATM    6  C   UNK     0     140.691 116.830 110.795  0.00  0.00     0.002 A 
HETATM    7  C   UNK     0     141.181 118.998 107.600  0.00  0.00     0.000 A 
HETATM    8  C   UNK     0     141.896 118.371 106.784  0.00  0.00     0.002 A 
HETATM    9  C   UNK     0     142.194 113.773 110.844  0.00  0.00     0.004 A 
HETATM   10  C   UNK     0     143.035 113.035 109.885  0.00  0.00     0.024 A 
HETATM   11  C   UNK     0     143.624 113.341 108.379  0.00  0.00     0.100 A 
HETATM   12  C   UNK     0     143.373 115.484 106.715  0.00  0.00     0.090 C 
ENDROOT
TORSDOF 1
ENDMDL
MODEL 3
REMARK VINA RESULT:      -5.9     27.403     29.334
REMARK  1 active torsions:
REMARK  status: ('A' for Active; 'I' for Inactive)
REMARK    1  A    between atoms: C_10  and  C_11 
ROOT
HETATM    1  N   UNK     0     141.410 116.756 108.117  0.00  0.00    -0.348 N 
HETATM    2  C   UNK     0     140.149 115.820 110.063  0.00  0.00     0.021 A 
HETATM    3  C   UNK     0     140.845 116.216 109.098  0.00  0.00     0.083 A 
HETATM    4  C   UNK     0     142.494 113.344 110.260  0.00  0.00     0.004 A 
HETATM    5  C   UNK     0     142.427 114.301 109.453  0.00  0.00     0.019 A 
HETATM    6  C   UNK     0     141.529 113.002 111.411  0.00  0.00     0.002 A 
HETATM    7  C   UNK     0     144.543 112.812 108.956  0.00  0.00     0.000 A 
HETATM    8  C   UNK     0     144.476 113.769 108.148  0.00  0.00     0.002 A 
HETATM    9  C   UNK     0     139.340 115.578 110.988  0.00  0.00     0.004 A 
HETATM   10  C   UNK     0     139.260 116.703 110.038  0.00  0.00     0.024 A 
HETATM   11  C   UNK     0     140.174 117.223 108.772  0.00  0.00     0.100 A 
HETATM   12  C   UNK     0     142.461 116.262 107.647  0.00  0.00     0.090 C 
ENDROOT
TORSDOF 1
ENDMDL
MODEL 4
REMARK VINA RESULT:      -5.7     27.565     29.458
REMARK  1 active torsions:
REMARK  status: ('A' for Active; 'I' for Inactive)
REMARK    1  A    between atoms: C_10  and  C_11 
ROOT
HETATM    1  N   UNK     0     141.403 115.662 110.654  0.00  0.00    -0.348 N 
HETATM    2  C   UNK     0     142.805 114.194 109.193  0.00  0.00     0.021 A 
HETATM    3  C   UNK     0     142.103 114.996 109.853  0.00  0.00     0.083 A 
HETATM    4  C   UNK     0     142.715 116.644 106.816  0.00  0.00     0.004 A 
HETATM    5  C   UNK     0     142.188 116.634 107.954  0.00  0.00     0.019 A 
HETATM    6  C   UNK     0     143.564 115.545 106.151  0.00  0.00     0.002 A 
HETATM    7  C   UNK     0     141.662 118.894 106.709  0.00  0.00     0.000 A 
HETATM    8  C   UNK     0     141.136 118.884 107.847  0.00  0.00     0.002 A 
HETATM    9  C   UNK     0     143.491 113.274 108.690  0.00  0.00     0.004 A 
HETATM   10  C   UNK     0     142.872 113.261 110.028  0.00  0.00     0.024 A 
HETATM   11  C   UNK     0     141.951 114.314 110.894  0.00  0.00     0.100 A 
HETATM   12  C   UNK     0     140.995 116.802 110.331  0.00  0.00     0.090 C 
ENDROOT
TORSDOF 1
ENDMDL
MODEL 5
REMARK VINA RESULT:      -5.7     27.947     30.000
REMARK  1 active torsions:
REMARK  status: ('A' for Active; 'I' for Inactive)
REMARK    1  A    between atoms: C_10  and  C_11 
ROOT
HETATM    1  N   UNK     0     140.661 117.624 109.303  0.00  0.00    -0.348 N 
HETATM    2  C   UNK     0     142.270 117.201 107.435  0.00  0.00     0.021 A 
HETATM    3  C   UNK     0     141.484 117.323 108.405  0.00  0.00     0.083 A 
HETATM    4  C   UNK     0     142.828 114.100 108.752  0.00  0.00     0.004 A 
HETATM    5  C   UNK     0     142.066 115.005 109.168  0.00  0.00     0.019 A 
HETATM    6  C   UNK     0     143.744 114.122 107.515  0.00  0.00     0.002 A 
HETATM    7  C   UNK     0     141.943 112.893 110.738  0.00  0.00     0.000 A 
HETATM    8  C   UNK     0     141.181 113.798 111.154  0.00  0.00     0.002 A 
HETATM    9  C   UNK     0     143.001 117.262 106.419  0.00  0.00     0.004 A 
HETATM   10  C   UNK     0     142.105 118.326 106.908  0.00  0.00     0.024 A 
HETATM   11  C   UNK     0     141.073 118.485 108.180  0.00  0.00     0.100 A 
HETATM   12  C   UNK     0     140.393 116.800 110.209  0.00  0.00     0.090 C 
ENDROOT
TORSDOF 1
ENDMDL
MODEL 6
REMARK VINA RESULT:      -5.3     34.606     35.772
REMARK  1 active torsions:
REMARK  status: ('A' for Active; 'I' for Inactive)
REMARK    1  A    between atoms: C_10  and  C_11 
ROOT
HETATM    1  N   UNK     0     134.350 113.929 149.555  0.00  0.00    -0.348 N 
HETATM    2  C   UNK     0     132.225 114.591 148.413  0.00  0.00     0.021 A 
HETATM    3  C   UNK     0     133.287 114.344 149.034  0.00  0.00     0.083 A 
HETATM    4  C   UNK     0     132.290 117.500 150.200  0.00  0.00     0.004 A 
HETATM    5  C   UNK     0     133.105 116.548 150.220  0.00  0.00     0.019 A 
HETATM    6  C   UNK     0     131.009 117.638 149.357  0.00  0.00     0.002 A 
HETATM    7  C   UNK     0     133.850 118.441 151.892  0.00  0.00     0.000 A 
HETATM    8  C   UNK     0     134.665 117.489 151.912  0.00  0.00     0.002 A 
HETATM    9  C   UNK     0     131.192 114.662 147.708  0.00  0.00     0.004 A 
HETATM   10  C   UNK     0     132.150 113.542 147.731  0.00  0.00     0.024 A 
HETATM   11  C   UNK     0     133.543 113.219 148.546  0.00  0.00     0.100 A 
HETATM   12  C   UNK     0     134.947 114.630 150.405  0.00  0.00     0.090 C 
ENDROOT
TORSDOF 1
ENDMDL
MODEL 7
REMARK VINA RESULT:      -5.3    105.189    107.125
REMARK  1 active torsions:
REMARK  status: ('A' for Active; 'I' for Inactive)
REMARK    1  A    between atoms: C_10  and  C_11 
ROOT
HETATM    1  N   UNK     0      58.121 112.851  95.607  0.00  0.00    -0.348 N 
HETATM    2  C   UNK     0      59.908 111.116  95.384  0.00  0.00     0.021 A 
HETATM    3  C   UNK     0      59.020 111.975  95.593  0.00  0.00     0.083 A 
HETATM    4  C   UNK     0      60.002 110.920  98.792  0.00  0.00     0.004 A 
HETATM    5  C   UNK     0      59.281 111.645  98.066  0.00  0.00     0.019 A 
HETATM    6  C   UNK     0      61.066 109.896  98.355  0.00  0.00     0.002 A 
HETATM    7  C   UNK     0      58.762 112.072 100.612  0.00  0.00     0.000 A 
HETATM    8  C   UNK     0      58.041 112.797  99.887  0.00  0.00     0.002 A 
HETATM    9  C   UNK     0      60.765 110.293  94.985  0.00  0.00     0.004 A 
HETATM   10  C   UNK     0      59.918 111.145  94.131  0.00  0.00     0.024 A 
HETATM   11  C   UNK     0      58.752 112.273  94.405  0.00  0.00     0.100 A 
HETATM   12  C   UNK     0      57.664 113.263  96.698  0.00  0.00     0.090 C 
ENDROOT
TORSDOF 1
ENDMDL
MODEL 8
REMARK VINA RESULT:      -5.2     29.039     30.064
REMARK  1 active torsions:
REMARK  status: ('A' for Active; 'I' for Inactive)
REMARK    1  A    between atoms: C_10  and  C_11 
ROOT
HETATM    1  N   UNK     0     140.065 117.188 109.405  0.00  0.00    -0.348 N 
HETATM    2  C   UNK     0     140.481 114.755 109.808  0.00  0.00     0.021 A 
HETATM    3  C   UNK     0     140.347 115.973 109.542  0.00  0.00     0.083 A 
HETATM    4  C   UNK     0     143.022 114.916 107.532  0.00  0.00     0.004 A 
HETATM    5  C   UNK     0     142.253 115.829 107.917  0.00  0.00     0.019 A 
HETATM    6  C   UNK     0     143.045 113.442 107.976  0.00  0.00     0.002 A 
HETATM    7  C   UNK     0     143.960 116.745 106.133  0.00  0.00     0.000 A 
HETATM    8  C   UNK     0     143.192 117.658 106.519  0.00  0.00     0.002 A 
HETATM    9  C   UNK     0     140.465 113.564 110.197  0.00  0.00     0.004 A 
HETATM   10  C   UNK     0     139.561 114.637 110.651  0.00  0.00     0.024 A 
HETATM   11  C   UNK     0     139.385 116.235 110.301  0.00  0.00     0.100 A 
HETATM   12  C   UNK     0     140.721 117.898 108.607  0.00  0.00     0.090 C 
ENDROOT
TORSDOF 1
ENDMDL
MODEL 9
REMARK VINA RESULT:      -5.1     41.256     43.027
REMARK  1 active torsions:
REMARK  status: ('A' for Active; 'I' for Inactive)
REMARK    1  A    between atoms: C_10  and  C_11 
ROOT
HETATM    1  N   UNK     0     138.976 111.950  94.880  0.00  0.00    -0.348 N 
HETATM    2  C   UNK     0     137.414 113.741  95.658  0.00  0.00     0.021 A 
HETATM    3  C   UNK     0     138.163 112.858  95.176  0.00  0.00     0.083 A 
HETATM    4  C   UNK     0     136.376 114.099  92.424  0.00  0.00     0.004 A 
HETATM    5  C   UNK     0     137.234 113.314  92.891  0.00  0.00     0.019 A 
HETATM    6  C   UNK     0     135.530 115.143  93.178  0.00  0.00     0.002 A 
HETATM    7  C   UNK     0     136.993 112.985  90.289  0.00  0.00     0.000 A 
HETATM    8  C   UNK     0     137.852 112.199  90.756  0.00  0.00     0.002 A 
HETATM    9  C   UNK     0     136.747 114.577  96.310  0.00  0.00     0.004 A 
HETATM   10  C   UNK     0     137.756 113.653  96.860  0.00  0.00     0.024 A 
HETATM   11  C   UNK     0     138.739 112.495  96.229  0.00  0.00     0.100 A 
HETATM   12  C   UNK     0     139.086 111.571  93.690  0.00  0.00     0.090 C 
ENDROOT
TORSDOF 1
ENDMDL
MODEL 10
REMARK VINA RESULT:      -5.1     45.249     46.396
REMARK  1 active torsions:
REMARK  status: ('A' for Active; 'I' for Inactive)
REMARK    1  A    between atoms: C_10  and  C_11 
ROOT
HETATM    1  N   UNK     0     115.854 118.536 133.849  0.00  0.00    -0.348 N 
HETATM    2  C   UNK     0     117.289 119.234 131.923  0.00  0.00     0.021 A 
HETATM    3  C   UNK     0     116.589 118.971 132.930  0.00  0.00     0.083 A 
HETATM    4  C   UNK     0     117.840 122.192 133.538  0.00  0.00     0.004 A 
HETATM    5  C   UNK     0     117.147 121.214 133.905  0.00  0.00     0.019 A 
HETATM    6  C   UNK     0     118.652 122.349 132.239  0.00  0.00     0.002 A 
HETATM    7  C   UNK     0     117.076 123.131 135.710  0.00  0.00     0.000 A 
HETATM    8  C   UNK     0     116.383 122.153 136.077  0.00  0.00     0.002 A 
HETATM    9  C   UNK     0     117.936 119.319 130.854  0.00  0.00     0.004 A 
HETATM   10  C   UNK     0     117.122 118.168 131.285  0.00  0.00     0.024 A 
HETATM   11  C   UNK     0     116.204 117.823 132.606  0.00  0.00     0.100 A 
HETATM   12  C   UNK     0     115.631 119.241 134.860  0.00  0.00     0.090 C 
ENDROOT
TORSDOF 1
ENDMDL
