MODEL 1
REMARK VINA RESULT:      -8.5      0.000      0.000
REMARK  4 active torsions:
REMARK  status: ('A' for Active; 'I' for Inactive)
REMARK    1  A    between atoms: O_1  and  C_15 
REMARK    2  A    between atoms: O_1  and  C_22 
REMARK    3  A    between atoms: O_2  and  C_19 
REMARK    4  A    between atoms: C_21  and  C_22 
ROOT
HETATM    1  O   UNK     0     117.144 167.175 125.034  0.00  0.00    -0.290 OA
HETATM    2  O   UNK     0     119.061 164.130 121.095  0.00  0.00     0.000 OA
HETATM    3  O   UNK     0     118.797 166.495 119.139  0.00  0.00    -0.223 OA
HETATM    4  O   UNK     0     119.474 163.961 119.621  0.00  0.00     0.000 OA
HETATM    5  N   UNK     0     118.499 162.106 125.999  0.00  0.00    -0.254 NA
HETATM    6  N   UNK     0     118.929 165.313 120.117  0.00  0.00     0.000 N 
HETATM    7  C   UNK     0     118.235 164.470 124.043  0.00  0.00     0.006 A 
HETATM    8  C   UNK     0     117.821 164.641 125.517  0.00  0.00     0.060 A 
HETATM    9  C   UNK     0     118.780 163.118 123.547  0.00  0.00     0.038 A 
HETATM   10  C   UNK     0     118.102 165.653 123.065  0.00  0.00    -0.001 A 
HETATM   11  C   UNK     0     117.953 163.458 126.495  0.00  0.00     0.063 A 
HETATM   12  C   UNK     0     118.912 161.936 124.525  0.00  0.00     0.061 A 
HETATM   13  C   UNK     0     117.276 165.992 126.012  0.00  0.00     0.200 A 
HETATM   14  C   UNK     0     118.516 165.483 121.591  0.00  0.00     0.061 A 
HETATM   15  C   UNK     0     117.557 167.005 123.561  0.00  0.00     0.076 A 
HETATM   16  C   UNK     0     117.540 163.628 127.968  0.00  0.00     0.052 C 
HETATM   17  C   UNK     0     119.193 162.948 122.073  0.00  0.00     0.117 A 
HETATM   18  C   UNK     0     119.458 160.584 124.029  0.00  0.00     0.052 C 
HETATM   19  C   UNK     0     118.384 166.665 120.613  0.00  0.00     0.157 A 
HETATM   20  C   UNK     0     117.425 168.187 122.583  0.00  0.00     0.054 A 
HETATM   21  C   UNK     0     117.838 168.017 121.109  0.00  0.00     0.040 A 
ENDROOT
BRANCH  13  22
HETATM   22  O   UNK     0     116.863 166.162 127.486  0.00  0.00    -0.311 OA
BRANCH  22  23
HETATM   23  C   UNK     0     115.435 166.620 127.837  0.00  0.00     0.151 C 
BRANCH  23  24
HETATM   24  C   UNK     0     114.278 165.604 127.831  0.00  0.00     0.030 C 
HETATM   25  C   UNK     0     113.700 165.087 129.162  0.00  0.00     0.003 C 
HETATM   26  C   UNK     0     113.697 165.106 126.495  0.00  0.00     0.003 C 
ENDBRANCH  23  24
ENDBRANCH  22  23
ENDBRANCH  13  22
BRANCH  17  27
HETATM   27  O   UNK     0     119.739 161.596 121.577  0.00  0.00    -0.326 OA
HETATM   28  C   UNK     0     118.932 160.766 120.561  0.00  0.00     0.181 C 
ENDBRANCH  17  27
TORSDOF 4
ENDMDL
MODEL 2
REMARK VINA RESULT:      -7.9     58.260     61.029
REMARK  4 active torsions:
REMARK  status: ('A' for Active; 'I' for Inactive)
REMARK    1  A    between atoms: O_1  and  C_15 
REMARK    2  A    between atoms: O_1  and  C_22 
REMARK    3  A    between atoms: O_2  and  C_19 
REMARK    4  A    between atoms: C_21  and  C_22 
ROOT
HETATM    1  O   UNK     0      84.020 128.159  91.290  0.00  0.00    -0.290 OA
HETATM    2  O   UNK     0      80.325 125.645  94.205  0.00  0.00     0.000 OA
HETATM    3  O   UNK     0      82.516 123.883  95.463  0.00  0.00    -0.223 OA
HETATM    4  O   UNK     0      79.950 124.577  95.248  0.00  0.00     0.000 OA
HETATM    5  N   UNK     0      78.886 129.545  90.861  0.00  0.00    -0.254 NA
HETATM    6  N   UNK     0      81.421 124.764  94.834  0.00  0.00     0.000 N 
HETATM    7  C   UNK     0      81.077 127.783  92.118  0.00  0.00     0.006 A 
HETATM    8  C   UNK     0      81.453 128.852  91.075  0.00  0.00     0.060 A 
HETATM    9  C   UNK     0      79.606 127.595  92.533  0.00  0.00     0.038 A 
HETATM   10  C   UNK     0      82.173 126.902  92.747  0.00  0.00    -0.001 A 
HETATM   11  C   UNK     0      80.358 129.733  90.446  0.00  0.00     0.063 A 
HETATM   12  C   UNK     0      78.510 128.476  91.904  0.00  0.00     0.061 A 
HETATM   13  C   UNK     0      82.924 129.040  90.661  0.00  0.00     0.200 A 
HETATM   14  C   UNK     0      81.797 125.833  93.791  0.00  0.00     0.061 A 
HETATM   15  C   UNK     0      83.644 127.090  92.333  0.00  0.00     0.076 A 
HETATM   16  C   UNK     0      80.733 130.801  89.404  0.00  0.00     0.052 C 
HETATM   17  C   UNK     0      79.230 126.526  93.576  0.00  0.00     0.117 A 
HETATM   18  C   UNK     0      77.039 128.288  92.318  0.00  0.00     0.052 C 
HETATM   19  C   UNK     0      82.892 124.952  94.420  0.00  0.00     0.157 A 
HETATM   20  C   UNK     0      84.740 126.209  92.962  0.00  0.00     0.054 A 
HETATM   21  C   UNK     0      84.364 125.140  94.005  0.00  0.00     0.040 A 
ENDROOT
BRANCH  13  22
HETATM   22  O   UNK     0      83.300 130.109  89.618  0.00  0.00    -0.311 OA
BRANCH  22  23
HETATM   23  C   UNK     0      84.267 131.246  89.996  0.00  0.00     0.151 C 
BRANCH  23  24
HETATM   24  C   UNK     0      84.767 132.222  88.914  0.00  0.00     0.030 C 
HETATM   25  C   UNK     0      86.268 132.296  88.577  0.00  0.00     0.003 C 
HETATM   26  C   UNK     0      83.765 133.125  88.170  0.00  0.00     0.003 C 
ENDBRANCH  23  24
ENDBRANCH  22  23
ENDBRANCH  13  22
BRANCH  17  27
HETATM   27  O   UNK     0      77.759 126.338  93.990  0.00  0.00    -0.326 OA
HETATM   28  C   UNK     0      77.020 125.034  93.635  0.00  0.00     0.181 C 
ENDBRANCH  17  27
TORSDOF 4
ENDMDL
MODEL 3
REMARK VINA RESULT:      -7.4      3.137      6.776
REMARK  4 active torsions:
REMARK  status: ('A' for Active; 'I' for Inactive)
REMARK    1  A    between atoms: O_1  and  C_15 
REMARK    2  A    between atoms: O_1  and  C_22 
REMARK    3  A    between atoms: O_2  and  C_19 
REMARK    4  A    between atoms: C_21  and  C_22 
ROOT
HETATM    1  O   UNK     0     120.458 164.944 122.070  0.00  0.00    -0.290 OA
HETATM    2  O   UNK     0     120.727 164.898 127.398  0.00  0.00     0.000 OA
HETATM    3  O   UNK     0     123.775 164.488 127.240  0.00  0.00    -0.223 OA
HETATM    4  O   UNK     0     121.556 164.785 128.689  0.00  0.00     0.000 OA
HETATM    5  N   UNK     0     116.020 165.537 124.969  0.00  0.00    -0.254 NA
HETATM    6  N   UNK     0     122.251 164.693 127.319  0.00  0.00     0.000 N 
HETATM    7  C   UNK     0     119.068 165.126 124.812  0.00  0.00     0.006 A 
HETATM    8  C   UNK     0     118.239 165.240 123.519  0.00  0.00     0.060 A 
HETATM    9  C   UNK     0     118.373 165.218 126.183  0.00  0.00     0.038 A 
HETATM   10  C   UNK     0     120.592 164.921 124.733  0.00  0.00    -0.001 A 
HETATM   11  C   UNK     0     116.714 165.445 123.598  0.00  0.00     0.063 A 
HETATM   12  C   UNK     0     116.849 165.423 126.262  0.00  0.00     0.061 A 
HETATM   13  C   UNK     0     118.933 165.149 122.148  0.00  0.00     0.200 A 
HETATM   14  C   UNK     0     121.422 164.807 126.026  0.00  0.00     0.061 A 
HETATM   15  C   UNK     0     121.287 164.830 123.361  0.00  0.00     0.076 A 
HETATM   16  C   UNK     0     115.885 165.559 122.306  0.00  0.00     0.052 C 
HETATM   17  C   UNK     0     119.203 165.104 127.476  0.00  0.00     0.117 A 
HETATM   18  C   UNK     0     116.154 165.514 127.634  0.00  0.00     0.052 C 
HETATM   19  C   UNK     0     122.946 164.602 125.947  0.00  0.00     0.157 A 
HETATM   20  C   UNK     0     122.811 164.624 123.283  0.00  0.00     0.054 A 
HETATM   21  C   UNK     0     123.641 164.511 124.576  0.00  0.00     0.040 A 
ENDROOT
BRANCH  13  22
HETATM   22  O   UNK     0     118.104 165.263 120.855  0.00  0.00    -0.311 OA
BRANCH  22  23
HETATM   23  C   UNK     0     118.407 166.382 119.843  0.00  0.00     0.151 C 
BRANCH  23  24
HETATM   24  C   UNK     0     118.712 167.808 120.340  0.00  0.00     0.030 C 
HETATM   25  C   UNK     0     120.156 168.343 120.304  0.00  0.00     0.003 C 
HETATM   26  C   UNK     0     117.574 168.698 120.873  0.00  0.00     0.003 C 
ENDBRANCH  23  24
ENDBRANCH  22  23
ENDBRANCH  13  22
BRANCH  17  27
HETATM   27  O   UNK     0     118.508 165.195 128.847  0.00  0.00    -0.326 OA
HETATM   28  C   UNK     0     118.516 163.983 129.797  0.00  0.00     0.181 C 
ENDBRANCH  17  27
TORSDOF 4
ENDMDL
MODEL 4
REMARK VINA RESULT:      -7.1     21.452     24.825
REMARK  4 active torsions:
REMARK  status: ('A' for Active; 'I' for Inactive)
REMARK    1  A    between atoms: O_1  and  C_15 
REMARK    2  A    between atoms: O_1  and  C_22 
REMARK    3  A    between atoms: O_2  and  C_19 
REMARK    4  A    between atoms: C_21  and  C_22 
ROOT
HETATM    1  O   UNK     0     121.886 145.600 133.856  0.00  0.00    -0.290 OA
HETATM    2  O   UNK     0     121.802 140.322 134.629  0.00  0.00     0.000 OA
HETATM    3  O   UNK     0     121.346 139.888 131.614  0.00  0.00    -0.223 OA
HETATM    4  O   UNK     0     121.667 138.895 134.068  0.00  0.00     0.000 OA
HETATM    5  N   UNK     0     122.530 143.612 138.765  0.00  0.00    -0.254 NA
HETATM    6  N   UNK     0     121.574 140.105 133.121  0.00  0.00     0.000 N 
HETATM    7  C   UNK     0     122.073 143.178 135.750  0.00  0.00     0.006 A 
HETATM    8  C   UNK     0     122.208 144.607 136.310  0.00  0.00     0.060 A 
HETATM    9  C   UNK     0     122.166 141.967 136.697  0.00  0.00     0.038 A 
HETATM   10  C   UNK     0     121.844 142.961 134.242  0.00  0.00    -0.001 A 
HETATM   11  C   UNK     0     122.436 144.824 137.818  0.00  0.00     0.063 A 
HETATM   12  C   UNK     0     122.394 142.184 138.204  0.00  0.00     0.061 A 
HETATM   13  C   UNK     0     122.115 145.817 135.363  0.00  0.00     0.200 A 
HETATM   14  C   UNK     0     121.709 141.533 133.682  0.00  0.00     0.061 A 
HETATM   15  C   UNK     0     121.751 144.173 133.295  0.00  0.00     0.076 A 
HETATM   16  C   UNK     0     122.572 146.251 138.378  0.00  0.00     0.052 C 
HETATM   17  C   UNK     0     122.031 140.539 136.136  0.00  0.00     0.117 A 
HETATM   18  C   UNK     0     122.488 140.973 139.151  0.00  0.00     0.052 C 
HETATM   19  C   UNK     0     121.481 141.316 132.174  0.00  0.00     0.157 A 
HETATM   20  C   UNK     0     121.523 143.956 131.788  0.00  0.00     0.054 A 
HETATM   21  C   UNK     0     121.388 142.527 131.227  0.00  0.00     0.040 A 
ENDROOT
BRANCH  13  22
HETATM   22  O   UNK     0     122.250 147.245 135.924  0.00  0.00    -0.311 OA
BRANCH  22  23
HETATM   23  C   UNK     0     123.062 148.301 135.153  0.00  0.00     0.151 C 
BRANCH  23  24
HETATM   24  C   UNK     0     122.345 149.291 134.215  0.00  0.00     0.030 C 
HETATM   25  C   UNK     0     121.703 150.568 134.789  0.00  0.00     0.003 C 
HETATM   26  C   UNK     0     122.270 149.004 132.704  0.00  0.00     0.003 C 
ENDBRANCH  23  24
ENDBRANCH  22  23
ENDBRANCH  13  22
BRANCH  17  27
HETATM   27  O   UNK     0     122.124 139.329 137.083  0.00  0.00    -0.326 OA
HETATM   28  C   UNK     0     123.249 138.292 136.899  0.00  0.00     0.181 C 
ENDBRANCH  17  27
TORSDOF 4
ENDMDL
MODEL 5
REMARK VINA RESULT:      -7.0     67.762     71.701
REMARK  4 active torsions:
REMARK  status: ('A' for Active; 'I' for Inactive)
REMARK    1  A    between atoms: O_1  and  C_15 
REMARK    2  A    between atoms: O_1  and  C_22 
REMARK    3  A    between atoms: O_2  and  C_19 
REMARK    4  A    between atoms: C_21  and  C_22 
ROOT
HETATM    1  O   UNK     0     162.631 106.633 130.446  0.00  0.00    -0.290 OA
HETATM    2  O   UNK     0     158.755 108.752 127.455  0.00  0.00     0.000 OA
HETATM    3  O   UNK     0     157.197 106.098 127.594  0.00  0.00    -0.223 OA
HETATM    4  O   UNK     0     157.397 108.618 126.743  0.00  0.00     0.000 OA
HETATM    5  N   UNK     0     163.030 111.672 128.742  0.00  0.00    -0.254 NA
HETATM    6  N   UNK     0     157.976 107.425 127.525  0.00  0.00     0.000 N 
HETATM    7  C   UNK     0     161.472 109.019 128.882  0.00  0.00     0.006 A 
HETATM    8  C   UNK     0     162.831 109.152 129.595  0.00  0.00     0.060 A 
HETATM    9  C   UNK     0     160.893 110.212 128.099  0.00  0.00     0.038 A 
HETATM   10  C   UNK     0     160.693 107.692 128.951  0.00  0.00    -0.001 A 
HETATM   11  C   UNK     0     163.610 110.479 129.525  0.00  0.00     0.063 A 
HETATM   12  C   UNK     0     161.671 111.539 128.029  0.00  0.00     0.061 A 
HETATM   13  C   UNK     0     163.410 107.959 130.377  0.00  0.00     0.200 A 
HETATM   14  C   UNK     0     159.335 107.559 128.238  0.00  0.00     0.061 A 
HETATM   15  C   UNK     0     161.273 106.499 129.734  0.00  0.00     0.076 A 
HETATM   16  C   UNK     0     164.968 110.613 130.238  0.00  0.00     0.052 C 
HETATM   17  C   UNK     0     159.534 110.078 127.386  0.00  0.00     0.117 A 
HETATM   18  C   UNK     0     161.092 112.732 127.247  0.00  0.00     0.052 C 
HETATM   19  C   UNK     0     158.556 106.232 128.307  0.00  0.00     0.157 A 
HETATM   20  C   UNK     0     160.494 105.172 129.803  0.00  0.00     0.054 A 
HETATM   21  C   UNK     0     159.136 105.039 129.090  0.00  0.00     0.040 A 
ENDROOT
BRANCH  13  22
HETATM   22  O   UNK     0     164.769 108.093 131.090  0.00  0.00    -0.311 OA
BRANCH  22  23
HETATM   23  C   UNK     0     164.920 107.631 132.550  0.00  0.00     0.151 C 
BRANCH  23  24
HETATM   24  C   UNK     0     165.099 106.135 132.870  0.00  0.00     0.030 C 
HETATM   25  C   UNK     0     165.544 105.158 131.765  0.00  0.00     0.003 C 
HETATM   26  C   UNK     0     164.832 105.615 134.295  0.00  0.00     0.003 C 
ENDBRANCH  23  24
ENDBRANCH  22  23
ENDBRANCH  13  22
BRANCH  17  27
HETATM   27  O   UNK     0     158.955 111.271 126.604  0.00  0.00    -0.326 OA
HETATM   28  C   UNK     0     158.802 111.188 125.073  0.00  0.00     0.181 C 
ENDBRANCH  17  27
TORSDOF 4
ENDMDL
MODEL 6
REMARK VINA RESULT:      -6.9     80.634     83.706
REMARK  4 active torsions:
REMARK  status: ('A' for Active; 'I' for Inactive)
REMARK    1  A    between atoms: O_1  and  C_15 
REMARK    2  A    between atoms: O_1  and  C_22 
REMARK    3  A    between atoms: O_2  and  C_19 
REMARK    4  A    between atoms: C_21  and  C_22 
ROOT
HETATM    1  O   UNK     0     116.062  79.757 116.737  0.00  0.00    -0.290 OA
HETATM    2  O   UNK     0     111.758  82.874 117.204  0.00  0.00     0.000 OA
HETATM    3  O   UNK     0     110.690  81.802 114.522  0.00  0.00    -0.223 OA
HETATM    4  O   UNK     0     110.416  83.385 116.651  0.00  0.00     0.000 OA
HETATM    5  N   UNK     0     115.513  82.924 120.994  0.00  0.00    -0.254 NA
HETATM    6  N   UNK     0     111.224  82.338 115.863  0.00  0.00     0.000 N 
HETATM    7  C   UNK     0     114.445  81.851 118.312  0.00  0.00     0.006 A 
HETATM    8  C   UNK     0     115.788  81.340 118.866  0.00  0.00     0.060 A 
HETATM    9  C   UNK     0     113.636  82.899 119.099  0.00  0.00     0.038 A 
HETATM   10  C   UNK     0     113.911  81.315 116.971  0.00  0.00    -0.001 A 
HETATM   11  C   UNK     0     116.322  81.876 120.207  0.00  0.00     0.063 A 
HETATM   12  C   UNK     0     114.170  83.435 120.441  0.00  0.00     0.061 A 
HETATM   13  C   UNK     0     116.596  80.293 118.078  0.00  0.00     0.200 A 
HETATM   14  C   UNK     0     112.567  81.826 116.417  0.00  0.00     0.061 A 
HETATM   15  C   UNK     0     114.720  80.267 116.183  0.00  0.00     0.076 A 
HETATM   16  C   UNK     0     117.665  81.365 120.761  0.00  0.00     0.052 C 
HETATM   17  C   UNK     0     112.292  83.410 118.546  0.00  0.00     0.117 A 
HETATM   18  C   UNK     0     113.360  84.483 121.228  0.00  0.00     0.052 C 
HETATM   19  C   UNK     0     112.033  81.290 115.076  0.00  0.00     0.157 A 
HETATM   20  C   UNK     0     114.186  79.731 114.842  0.00  0.00     0.054 A 
HETATM   21  C   UNK     0     112.843  80.243 114.288  0.00  0.00     0.040 A 
ENDROOT
BRANCH  13  22
HETATM   22  O   UNK     0     117.940  79.781 118.632  0.00  0.00    -0.311 OA
BRANCH  22  23
HETATM   23  C   UNK     0     118.757  78.747 117.836  0.00  0.00     0.151 C 
BRANCH  23  24
HETATM   24  C   UNK     0     120.280  78.920 117.686  0.00  0.00     0.030 C 
HETATM   25  C   UNK     0     121.083  77.944 116.805  0.00  0.00     0.003 C 
HETATM   26  C   UNK     0     121.000  80.068 118.417  0.00  0.00     0.003 C 
ENDBRANCH  23  24
ENDBRANCH  22  23
ENDBRANCH  13  22
BRANCH  17  27
HETATM   27  O   UNK     0     111.484  84.457 119.333  0.00  0.00    -0.326 OA
HETATM   28  C   UNK     0     110.105  84.089 119.912  0.00  0.00     0.181 C 
ENDBRANCH  17  27
TORSDOF 4
ENDMDL
MODEL 7
REMARK VINA RESULT:      -6.8     55.049     59.253
REMARK  4 active torsions:
REMARK  status: ('A' for Active; 'I' for Inactive)
REMARK    1  A    between atoms: O_1  and  C_15 
REMARK    2  A    between atoms: O_1  and  C_22 
REMARK    3  A    between atoms: O_2  and  C_19 
REMARK    4  A    between atoms: C_21  and  C_22 
ROOT
HETATM    1  O   UNK     0     153.915 122.644 109.644  0.00  0.00    -0.290 OA
HETATM    2  O   UNK     0     155.469 117.635 110.623  0.00  0.00     0.000 OA
HETATM    3  O   UNK     0     157.886 118.695 112.210  0.00  0.00    -0.223 OA
HETATM    4  O   UNK     0     156.462 116.648 111.264  0.00  0.00     0.000 OA
HETATM    5  N   UNK     0     151.066 118.549 107.752  0.00  0.00    -0.254 NA
HETATM    6  N   UNK     0     156.678 118.165 111.417  0.00  0.00     0.000 N 
HETATM    7  C   UNK     0     153.483 119.610 109.340  0.00  0.00     0.006 A 
HETATM    8  C   UNK     0     152.490 120.597 108.698  0.00  0.00     0.060 A 
HETATM    9  C   UNK     0     153.268 118.092 109.187  0.00  0.00     0.038 A 
HETATM   10  C   UNK     0     154.692 120.140 110.133  0.00  0.00    -0.001 A 
HETATM   11  C   UNK     0     151.282 120.067 107.904  0.00  0.00     0.063 A 
HETATM   12  C   UNK     0     152.059 117.562 108.394  0.00  0.00     0.061 A 
HETATM   13  C   UNK     0     152.706 122.114 108.850  0.00  0.00     0.200 A 
HETATM   14  C   UNK     0     155.685 119.152 110.775  0.00  0.00     0.061 A 
HETATM   15  C   UNK     0     154.908 121.657 110.286  0.00  0.00     0.076 A 
HETATM   16  C   UNK     0     150.289 121.053 107.263  0.00  0.00     0.052 C 
HETATM   17  C   UNK     0     154.261 117.105 109.829  0.00  0.00     0.117 A 
HETATM   18  C   UNK     0     151.844 116.045 108.242  0.00  0.00     0.052 C 
HETATM   19  C   UNK     0     156.893 119.682 111.569  0.00  0.00     0.157 A 
HETATM   20  C   UNK     0     156.116 122.187 111.079  0.00  0.00     0.054 A 
HETATM   21  C   UNK     0     157.109 121.200 111.721  0.00  0.00     0.040 A 
ENDROOT
BRANCH  13  22
HETATM   22  O   UNK     0     151.714 123.101 108.209  0.00  0.00    -0.311 OA
BRANCH  22  23
HETATM   23  C   UNK     0     151.212 124.317 109.009  0.00  0.00     0.151 C 
BRANCH  23  24
HETATM   24  C   UNK     0     150.774 124.146 110.475  0.00  0.00     0.030 C 
HETATM   25  C   UNK     0     149.456 123.422 110.806  0.00  0.00     0.003 C 
HETATM   26  C   UNK     0     151.654 124.700 111.611  0.00  0.00     0.003 C 
ENDBRANCH  23  24
ENDBRANCH  22  23
ENDBRANCH  13  22
BRANCH  17  27
HETATM   27  O   UNK     0     154.045 115.588 109.677  0.00  0.00    -0.326 OA
HETATM   28  C   UNK     0     155.063 114.740 108.892  0.00  0.00     0.181 C 
ENDBRANCH  17  27
TORSDOF 4
ENDMDL
MODEL 8
REMARK VINA RESULT:      -6.7     57.801     60.807
REMARK  4 active torsions:
REMARK  status: ('A' for Active; 'I' for Inactive)
REMARK    1  A    between atoms: O_1  and  C_15 
REMARK    2  A    between atoms: O_1  and  C_22 
REMARK    3  A    between atoms: O_2  and  C_19 
REMARK    4  A    between atoms: C_21  and  C_22 
ROOT
HETATM    1  O   UNK     0      84.477 132.136  89.650  0.00  0.00    -0.290 OA
HETATM    2  O   UNK     0      79.520 130.306  88.910  0.00  0.00     0.000 OA
HETATM    3  O   UNK     0      79.379 129.488  91.876  0.00  0.00    -0.223 OA
HETATM    4  O   UNK     0      78.246 129.645  89.466  0.00  0.00     0.000 OA
HETATM    5  N   UNK     0      82.211 132.448  84.831  0.00  0.00    -0.254 NA
HETATM    6  N   UNK     0      79.450 129.897  90.393  0.00  0.00     0.000 N 
HETATM    7  C   UNK     0      82.070 131.630  87.797  0.00  0.00     0.006 A 
HETATM    8  C   UNK     0      83.344 132.292  87.241  0.00  0.00     0.060 A 
HETATM    9  C   UNK     0      80.866 131.377  86.870  0.00  0.00     0.038 A 
HETATM   10  C   UNK     0      81.999 131.221  89.280  0.00  0.00    -0.001 A 
HETATM   11  C   UNK     0      83.415 132.701  85.757  0.00  0.00     0.063 A 
HETATM   12  C   UNK     0      80.936 131.786  85.387  0.00  0.00     0.061 A 
HETATM   13  C   UNK     0      84.547 132.544  88.167  0.00  0.00     0.200 A 
HETATM   14  C   UNK     0      80.724 130.559  89.836  0.00  0.00     0.061 A 
HETATM   15  C   UNK     0      83.203 131.474  90.207  0.00  0.00     0.076 A 
HETATM   16  C   UNK     0      84.689 133.362  85.201  0.00  0.00     0.052 C 
HETATM   17  C   UNK     0      79.591 130.715  87.427  0.00  0.00     0.117 A 
HETATM   18  C   UNK     0      79.732 131.533  84.461  0.00  0.00     0.052 C 
HETATM   19  C   UNK     0      80.654 130.150  91.319  0.00  0.00     0.157 A 
HETATM   20  C   UNK     0      83.132 131.065  91.690  0.00  0.00     0.054 A 
HETATM   21  C   UNK     0      81.858 130.403  92.246  0.00  0.00     0.040 A 
ENDROOT
BRANCH  13  22
HETATM   22  O   UNK     0      85.822 133.206  87.611  0.00  0.00    -0.311 OA
BRANCH  22  23
HETATM   23  C   UNK     0      87.183 132.504  87.764  0.00  0.00     0.151 C 
BRANCH  23  24
HETATM   24  C   UNK     0      87.674 131.530  86.676  0.00  0.00     0.030 C 
HETATM   25  C   UNK     0      86.858 130.265  86.349  0.00  0.00     0.003 C 
HETATM   26  C   UNK     0      88.981 131.821  85.914  0.00  0.00     0.003 C 
ENDBRANCH  23  24
ENDBRANCH  22  23
ENDBRANCH  13  22
BRANCH  17  27
HETATM   27  O   UNK     0      78.388 130.462  86.500  0.00  0.00    -0.326 OA
HETATM   28  C   UNK     0      77.098 131.287  86.671  0.00  0.00     0.181 C 
ENDBRANCH  17  27
TORSDOF 4
ENDMDL
MODEL 9
REMARK VINA RESULT:      -6.6     69.362     71.404
REMARK  4 active torsions:
REMARK  status: ('A' for Active; 'I' for Inactive)
REMARK    1  A    between atoms: O_1  and  C_15 
REMARK    2  A    between atoms: O_1  and  C_22 
REMARK    3  A    between atoms: O_2  and  C_19 
REMARK    4  A    between atoms: C_21  and  C_22 
ROOT
HETATM    1  O   UNK     0      68.747 119.757 105.477  0.00  0.00    -0.290 OA
HETATM    2  O   UNK     0      66.249 120.001 100.770  0.00  0.00     0.000 OA
HETATM    3  O   UNK     0      68.267 122.120  99.808  0.00  0.00    -0.223 OA
HETATM    4  O   UNK     0      66.130 120.592  99.353  0.00  0.00     0.000 OA
HETATM    5  N   UNK     0      64.471 116.701 104.565  0.00  0.00    -0.254 NA
HETATM    6  N   UNK     0      67.258 121.060 100.289  0.00  0.00     0.000 N 
HETATM    7  C   UNK     0      66.489 118.820 103.604  0.00  0.00     0.006 A 
HETATM    8  C   UNK     0      66.609 118.229 105.022  0.00  0.00     0.060 A 
HETATM    9  C   UNK     0      65.360 118.351 102.667  0.00  0.00     0.038 A 
HETATM   10  C   UNK     0      67.498 119.879 103.124  0.00  0.00    -0.001 A 
HETATM   11  C   UNK     0      65.600 117.169 105.502  0.00  0.00     0.063 A 
HETATM   12  C   UNK     0      64.351 117.291 103.148  0.00  0.00     0.061 A 
HETATM   13  C   UNK     0      67.738 118.698 105.958  0.00  0.00     0.200 A 
HETATM   14  C   UNK     0      67.378 120.470 101.706  0.00  0.00     0.061 A 
HETATM   15  C   UNK     0      68.627 120.348 104.061  0.00  0.00     0.076 A 
HETATM   16  C   UNK     0      65.720 116.579 106.919  0.00  0.00     0.052 C 
HETATM   17  C   UNK     0      65.240 118.941 101.250  0.00  0.00     0.117 A 
HETATM   18  C   UNK     0      63.222 116.822 102.211  0.00  0.00     0.052 C 
HETATM   19  C   UNK     0      68.387 121.529 101.226  0.00  0.00     0.157 A 
HETATM   20  C   UNK     0      69.636 121.407 103.580  0.00  0.00     0.054 A 
HETATM   21  C   UNK     0      69.516 121.998 102.163  0.00  0.00     0.040 A 
ENDROOT
BRANCH  13  22
HETATM   22  O   UNK     0      67.858 118.107 107.375  0.00  0.00    -0.311 OA
BRANCH  22  23
HETATM   23  C   UNK     0      69.244 117.939 108.024  0.00  0.00     0.151 C 
BRANCH  23  24
HETATM   24  C   UNK     0      69.650 116.584 108.633  0.00  0.00     0.030 C 
HETATM   25  C   UNK     0      70.955 115.899 108.186  0.00  0.00     0.003 C 
HETATM   26  C   UNK     0      68.751 115.915 109.690  0.00  0.00     0.003 C 
ENDBRANCH  23  24
ENDBRANCH  22  23
ENDBRANCH  13  22
BRANCH  17  27
HETATM   27  O   UNK     0      64.111 118.472 100.314  0.00  0.00    -0.326 OA
HETATM   28  C   UNK     0      63.004 119.456  99.891  0.00  0.00     0.181 C 
ENDBRANCH  17  27
TORSDOF 4
ENDMDL
MODEL 10
REMARK VINA RESULT:      -6.5     68.293     70.570
REMARK  4 active torsions:
REMARK  status: ('A' for Active; 'I' for Inactive)
REMARK    1  A    between atoms: O_1  and  C_15 
REMARK    2  A    between atoms: O_1  and  C_22 
REMARK    3  A    between atoms: O_2  and  C_19 
REMARK    4  A    between atoms: C_21  and  C_22 
ROOT
HETATM    1  O   UNK     0      69.767 121.890 101.915  0.00  0.00    -0.290 OA
HETATM    2  O   UNK     0      66.043 118.650 103.938  0.00  0.00     0.000 OA
HETATM    3  O   UNK     0      67.819 118.148 106.404  0.00  0.00    -0.223 OA
HETATM    4  O   UNK     0      65.556 117.715 105.060  0.00  0.00     0.000 OA
HETATM    5  N   UNK     0      65.241 121.022  99.227  0.00  0.00    -0.254 NA
HETATM    6  N   UNK     0      66.931 118.399 105.171  0.00  0.00     0.000 N 
HETATM    7  C   UNK     0      67.017 120.521 101.693  0.00  0.00     0.006 A 
HETATM    8  C   UNK     0      67.504 121.457 100.571  0.00  0.00     0.060 A 
HETATM    9  C   UNK     0      65.642 119.836 101.583  0.00  0.00     0.038 A 
HETATM   10  C   UNK     0      67.905 120.270 102.926  0.00  0.00    -0.001 A 
HETATM   11  C   UNK     0      66.616 121.707  99.338  0.00  0.00     0.063 A 
HETATM   12  C   UNK     0      64.754 120.086 100.350  0.00  0.00     0.061 A 
HETATM   13  C   UNK     0      68.879 122.141 100.682  0.00  0.00     0.200 A 
HETATM   14  C   UNK     0      67.418 119.335 104.049  0.00  0.00     0.061 A 
HETATM   15  C   UNK     0      69.280 120.955 103.037  0.00  0.00     0.076 A 
HETATM   16  C   UNK     0      67.103 122.642  98.216  0.00  0.00     0.052 C 
HETATM   17  C   UNK     0      65.155 118.900 102.705  0.00  0.00     0.117 A 
HETATM   18  C   UNK     0      63.379 119.401 100.239  0.00  0.00     0.052 C 
HETATM   19  C   UNK     0      68.306 119.084 105.282  0.00  0.00     0.157 A 
HETATM   20  C   UNK     0      70.168 120.705 104.270  0.00  0.00     0.054 A 
HETATM   21  C   UNK     0      69.681 119.769 105.392  0.00  0.00     0.040 A 
ENDROOT
BRANCH  13  22
HETATM   22  O   UNK     0      69.366 123.077  99.560  0.00  0.00    -0.311 OA
BRANCH  22  23
HETATM   23  C   UNK     0      69.719 124.541  99.878  0.00  0.00     0.151 C 
BRANCH  23  24
HETATM   24  C   UNK     0      71.172 125.032  99.731  0.00  0.00     0.030 C 
HETATM   25  C   UNK     0      71.806 125.155  98.333  0.00  0.00     0.003 C 
HETATM   26  C   UNK     0      71.990 125.400 100.983  0.00  0.00     0.003 C 
ENDBRANCH  23  24
ENDBRANCH  22  23
ENDBRANCH  13  22
BRANCH  17  27
HETATM   27  O   UNK     0      63.781 118.216 102.594  0.00  0.00    -0.326 OA
HETATM   28  C   UNK     0      63.687 116.679 102.554  0.00  0.00     0.181 C 
ENDBRANCH  17  27
TORSDOF 4
ENDMDL
