REMARK  2 active torsions:
REMARK  status: ('A' for Active; 'I' for Inactive)
REMARK    1  A    between atoms: N_6  and  C_14 
REMARK    2  A    between atoms: C_9  and  C_10 
ROOT
HETATM    1  O   UNK     0       4.369   4.840   0.000  0.00  0.00    -0.168 OA
HETATM    2  N   UNK     0       4.077   2.249   0.000  0.00  0.00    -0.223 NA
HETATM    3  N   UNK     0       7.537   2.249   0.000  0.00  0.00    -0.241 NA
HETATM    4  C   UNK     0       5.807   0.079   0.000  0.00  0.00     0.014 A 
HETATM    5  C   UNK     0       4.419   0.747   0.000  0.00  0.00     0.059 A 
HETATM    6  C   UNK     0       7.194   0.747   0.000  0.00  0.00     0.071 A 
HETATM    7  C   UNK     0       5.951  -1.519   0.000  0.00  0.00     0.075 A 
HETATM    8  C   UNK     0       3.080  -0.136   0.000  0.00  0.00     0.052 A 
HETATM    9  C   UNK     0       6.577   3.453   0.000  0.00  0.00     0.146 A 
HETATM   10  C   UNK     0       4.633  -2.432   0.000  0.00  0.00     0.087 A 
HETATM   11  C   UNK     0       5.037   3.453   0.000  0.00  0.00     0.232 A 
HETATM   12  C   UNK     0       3.188  -1.736   0.000  0.00  0.00     0.052 A 
ENDROOT
BRANCH   6  13
HETATM   13  C   UNK     0       8.398  -0.213   0.000  0.00  0.00    -0.027 A 
HETATM   14  C   UNK     0       9.832   0.350   0.000  0.00  0.00     0.024 A 
HETATM   15  C   UNK     0      11.036  -0.611   0.000  0.00  0.00     0.004 A 
HETATM   16  C   UNK     0      10.806  -2.133   0.000  0.00  0.00     0.001 A 
HETATM   17  C   UNK     0       9.373  -2.696   0.000  0.00  0.00     0.004 A 
HETATM   18  C   UNK     0       8.169  -1.736   0.000  0.00  0.00     0.024 A 
ENDBRANCH   6  13
BRANCH  10  19
HETATM   19  N   UNK     0       4.754  -3.968   0.000  0.00  0.00    -0.122 N 
HETATM   20  O   UNK     0       3.485  -4.840   0.000  0.00  0.00    -0.532 OA
HETATM   21  O   UNK     0       6.144  -4.630   0.000  0.00  0.00    -0.532 OA
ENDBRANCH  10  19
TORSDOF 2
