MODEL 1
REMARK VINA RESULT:      -7.3      0.000      0.000
REMARK  0 active torsions:
REMARK  status: ('A' for Active; 'I' for Inactive)
REMARK       I    between atoms: N_8  and  C_16 
ROOT
HETATM    1  C   UNK     0     157.922 112.141 126.311  0.00  0.00     0.005 A 
HETATM    2  C   UNK     0     159.266 112.575 126.912  0.00  0.00     0.007 A 
HETATM    3  C   UNK     0     160.143 111.554 127.642  0.00  0.00     0.044 A 
HETATM    4  C   UNK     0     157.456 110.693 126.439  0.00  0.00     0.028 A 
HETATM    5  C   UNK     0     159.676 110.104 127.770  0.00  0.00     0.040 A 
HETATM    6  C   UNK     0     158.327 109.668 127.167  0.00  0.00    -0.008 A 
HETATM    7  C   UNK     0     157.667 108.265 127.179  0.00  0.00     0.024 A 
HETATM    8  N   UNK     0     160.710 109.243 128.541  0.00  0.00    -0.283 N 
HETATM    9  C   UNK     0     158.194 106.953 127.799  0.00  0.00     0.128 A 
HETATM   10  C   UNK     0     159.517 106.721 128.561  0.00  0.00     0.015 A 
HETATM   11  C   UNK     0     160.636 107.734 128.893  0.00  0.00     0.042 A 
HETATM   12  C   UNK     0     161.884 107.273 129.674  0.00  0.00     0.044 A 
HETATM   13  C   UNK     0     162.013 105.801 130.124  0.00  0.00     0.007 A 
HETATM   14  C   UNK     0     160.885 104.790 129.787  0.00  0.00     0.005 A 
HETATM   15  C   UNK     0     159.644 105.256 129.008  0.00  0.00     0.030 A 
HETATM   16  C   UNK     0     161.965 109.978 129.017  0.00  0.00     0.271 C 
HETATM   17  N   UNK     0     162.138 111.470 128.722  0.00  0.00    -0.053 NA
HETATM   18  O   UNK     0     163.049 109.221 129.788  0.00  0.00    -0.154 OA
HETATM   19  O   UNK     0     157.291 105.727 127.637  0.00  0.00    -0.191 OA
ENDROOT
TORSDOF 0
ENDMDL
MODEL 2
REMARK VINA RESULT:      -7.2      1.364      3.832
REMARK  0 active torsions:
REMARK  status: ('A' for Active; 'I' for Inactive)
REMARK       I    between atoms: N_8  and  C_16 
ROOT
HETATM    1  C   UNK     0     160.628 112.931 127.290  0.00  0.00     0.005 A 
HETATM    2  C   UNK     0     159.298 112.341 126.800  0.00  0.00     0.007 A 
HETATM    3  C   UNK     0     158.970 110.870 127.069  0.00  0.00     0.044 A 
HETATM    4  C   UNK     0     161.625 112.056 128.044  0.00  0.00     0.028 A 
HETATM    5  C   UNK     0     159.969 109.993 127.825  0.00  0.00     0.040 A 
HETATM    6  C   UNK     0     161.303 110.586 128.316  0.00  0.00    -0.008 A 
HETATM    7  C   UNK     0     162.449 109.887 129.093  0.00  0.00     0.024 A 
HETATM    8  N   UNK     0     159.441 108.544 127.987  0.00  0.00    -0.283 N 
HETATM    9  C   UNK     0     162.541 108.421 129.569  0.00  0.00     0.128 A 
HETATM   10  C   UNK     0     161.504 107.290 129.385  0.00  0.00     0.015 A 
HETATM   11  C   UNK     0     160.128 107.340 128.684  0.00  0.00     0.042 A 
HETATM   12  C   UNK     0     159.251 106.073 128.619  0.00  0.00     0.044 A 
HETATM   13  C   UNK     0     159.749 104.756 129.254  0.00  0.00     0.007 A 
HETATM   14  C   UNK     0     161.132 104.714 129.956  0.00  0.00     0.005 A 
HETATM   15  C   UNK     0     162.002 105.981 130.017  0.00  0.00     0.030 A 
HETATM   16  C   UNK     0     158.063 108.266 127.382  0.00  0.00     0.271 C 
HETATM   17  N   UNK     0     157.298 109.386 126.671  0.00  0.00    -0.053 NA
HETATM   18  O   UNK     0     157.449 106.868 127.486  0.00  0.00    -0.154 OA
HETATM   19  O   UNK     0     163.820 108.040 130.319  0.00  0.00    -0.191 OA
ENDROOT
TORSDOF 0
ENDMDL
MODEL 3
REMARK VINA RESULT:      -6.8     37.519     39.775
REMARK  0 active torsions:
REMARK  status: ('A' for Active; 'I' for Inactive)
REMARK       I    between atoms: N_8  and  C_16 
ROOT
HETATM    1  C   UNK     0     128.422 130.658 123.243  0.00  0.00     0.005 A 
HETATM    2  C   UNK     0     127.028 131.226 122.941  0.00  0.00     0.007 A 
HETATM    3  C   UNK     0     125.814 130.293 122.906  0.00  0.00     0.044 A 
HETATM    4  C   UNK     0     128.602 129.166 123.508  0.00  0.00     0.028 A 
HETATM    5  C   UNK     0     125.995 128.798 123.172  0.00  0.00     0.040 A 
HETATM    6  C   UNK     0     127.394 128.230 123.474  0.00  0.00    -0.008 A 
HETATM    7  C   UNK     0     127.802 126.763 123.770  0.00  0.00     0.024 A 
HETATM    8  N   UNK     0     124.644 128.041 123.088  0.00  0.00    -0.283 N 
HETATM    9  C   UNK     0     126.909 125.504 123.836  0.00  0.00     0.128 A 
HETATM   10  C   UNK     0     125.383 125.404 123.620  0.00  0.00     0.015 A 
HETATM   11  C   UNK     0     124.374 126.527 123.288  0.00  0.00     0.042 A 
HETATM   12  C   UNK     0     122.879 126.190 123.115  0.00  0.00     0.044 A 
HETATM   13  C   UNK     0     122.392 124.734 123.274  0.00  0.00     0.007 A 
HETATM   14  C   UNK     0     123.410 123.612 123.607  0.00  0.00     0.005 A 
HETATM   15  C   UNK     0     124.900 123.954 123.778  0.00  0.00     0.030 A 
HETATM   16  C   UNK     0     123.419 128.900 122.765  0.00  0.00     0.271 C 
HETATM   17  N   UNK     0     123.575 130.407 122.548  0.00  0.00    -0.053 NA
HETATM   18  O   UNK     0     122.036 128.251 122.659  0.00  0.00    -0.154 OA
HETATM   19  O   UNK     0     127.628 124.191 124.154  0.00  0.00    -0.191 OA
ENDROOT
TORSDOF 0
ENDMDL
MODEL 4
REMARK VINA RESULT:      -6.7     33.906     34.905
REMARK  0 active torsions:
REMARK  status: ('A' for Active; 'I' for Inactive)
REMARK       I    between atoms: N_8  and  C_16 
ROOT
HETATM    1  C   UNK     0     137.444 113.068 151.290  0.00  0.00     0.005 A 
HETATM    2  C   UNK     0     137.352 114.429 151.995  0.00  0.00     0.007 A 
HETATM    3  C   UNK     0     136.179 115.367 151.694  0.00  0.00     0.044 A 
HETATM    4  C   UNK     0     136.370 112.646 150.292  0.00  0.00     0.028 A 
HETATM    5  C   UNK     0     135.103 114.944 150.694  0.00  0.00     0.040 A 
HETATM    6  C   UNK     0     135.197 113.578 149.988  0.00  0.00    -0.008 A 
HETATM    7  C   UNK     0     134.228 112.954 148.949  0.00  0.00     0.024 A 
HETATM    8  N   UNK     0     134.013 116.036 150.540  0.00  0.00    -0.283 N 
HETATM    9  C   UNK     0     132.927 113.544 148.362  0.00  0.00     0.128 A 
HETATM   10  C   UNK     0     132.274 114.910 148.672  0.00  0.00     0.015 A 
HETATM   11  C   UNK     0     132.752 116.018 149.636  0.00  0.00     0.042 A 
HETATM   12  C   UNK     0     131.929 117.314 149.787  0.00  0.00     0.044 A 
HETATM   13  C   UNK     0     130.630 117.502 148.974  0.00  0.00     0.007 A 
HETATM   14  C   UNK     0     130.156 116.385 148.007  0.00  0.00     0.005 A 
HETATM   15  C   UNK     0     130.981 115.095 147.862  0.00  0.00     0.030 A 
HETATM   16  C   UNK     0     134.207 117.295 151.389  0.00  0.00     0.271 C 
HETATM   17  N   UNK     0     135.420 117.415 152.315  0.00  0.00    -0.053 NA
HETATM   18  O   UNK     0     133.188 118.434 151.312  0.00  0.00    -0.154 OA
HETATM   19  O   UNK     0     132.194 112.666 147.346  0.00  0.00    -0.191 OA
ENDROOT
TORSDOF 0
ENDMDL
MODEL 5
REMARK VINA RESULT:      -6.6     18.642     21.166
REMARK  0 active torsions:
REMARK  status: ('A' for Active; 'I' for Inactive)
REMARK       I    between atoms: N_8  and  C_16 
ROOT
HETATM    1  C   UNK     0     152.664 130.561 122.437  0.00  0.00     0.005 A 
HETATM    2  C   UNK     0     153.673 129.415 122.597  0.00  0.00     0.007 A 
HETATM    3  C   UNK     0     153.186 128.019 122.995  0.00  0.00     0.044 A 
HETATM    4  C   UNK     0     151.177 130.314 122.674  0.00  0.00     0.028 A 
HETATM    5  C   UNK     0     151.696 127.771 123.232  0.00  0.00     0.040 A 
HETATM    6  C   UNK     0     150.685 128.922 123.072  0.00  0.00    -0.008 A 
HETATM    7  C   UNK     0     149.146 128.894 123.261  0.00  0.00     0.024 A 
HETATM    8  N   UNK     0     151.424 126.296 123.624  0.00  0.00    -0.283 N 
HETATM    9  C   UNK     0     148.240 127.708 123.658  0.00  0.00     0.128 A 
HETATM   10  C   UNK     0     148.655 126.251 123.964  0.00  0.00     0.015 A 
HETATM   11  C   UNK     0     150.065 125.620 123.950  0.00  0.00     0.042 A 
HETATM   12  C   UNK     0     150.243 124.127 124.293  0.00  0.00     0.044 A 
HETATM   13  C   UNK     0     149.013 123.265 124.649  0.00  0.00     0.007 A 
HETATM   14  C   UNK     0     147.600 123.905 124.661  0.00  0.00     0.005 A 
HETATM   15  C   UNK     0     147.429 125.395 124.318  0.00  0.00     0.030 A 
HETATM   16  C   UNK     0     152.654 125.388 123.699  0.00  0.00     0.271 C 
HETATM   17  N   UNK     0     154.043 125.955 123.396  0.00  0.00    -0.053 NA
HETATM   18  O   UNK     0     152.496 123.914 124.077  0.00  0.00    -0.154 OA
HETATM   19  O   UNK     0     146.744 128.014 123.761  0.00  0.00    -0.191 OA
ENDROOT
TORSDOF 0
ENDMDL
MODEL 6
REMARK VINA RESULT:      -6.6     53.757     56.066
REMARK  0 active torsions:
REMARK  status: ('A' for Active; 'I' for Inactive)
REMARK       I    between atoms: N_8  and  C_16 
ROOT
HETATM    1  C   UNK     0     110.060  87.826 101.823  0.00  0.00     0.005 A 
HETATM    2  C   UNK     0     111.268  86.900 102.025  0.00  0.00     0.007 A 
HETATM    3  C   UNK     0     112.612  87.485 102.467  0.00  0.00     0.044 A 
HETATM    4  C   UNK     0     110.195  89.327 102.062  0.00  0.00     0.028 A 
HETATM    5  C   UNK     0     112.747  88.989 102.706  0.00  0.00     0.040 A 
HETATM    6  C   UNK     0     111.535  89.917 102.503  0.00  0.00    -0.008 A 
HETATM    7  C   UNK     0     111.448  91.454 102.687  0.00  0.00     0.024 A 
HETATM    8  N   UNK     0     114.186  89.365 103.146  0.00  0.00    -0.283 N 
HETATM    9  C   UNK     0     112.554  92.441 103.119  0.00  0.00     0.128 A 
HETATM   10  C   UNK     0     114.025  92.130 103.474  0.00  0.00     0.015 A 
HETATM   11  C   UNK     0     114.753  90.768 103.488  0.00  0.00     0.042 A 
HETATM   12  C   UNK     0     116.243  90.695 103.881  0.00  0.00     0.044 A 
HETATM   13  C   UNK     0     117.005  91.984 104.260  0.00  0.00     0.007 A 
HETATM   14  C   UNK     0     116.267  93.349 104.244  0.00  0.00     0.005 A 
HETATM   15  C   UNK     0     114.781  93.414 103.851  0.00  0.00     0.030 A 
HETATM   16  C   UNK     0     115.174  88.201 103.256  0.00  0.00     0.271 C 
HETATM   17  N   UNK     0     114.716  86.775 102.940  0.00  0.00    -0.053 NA
HETATM   18  O   UNK     0     116.620  88.463 103.682  0.00  0.00    -0.154 OA
HETATM   19  O   UNK     0     112.141  93.912 103.205  0.00  0.00    -0.191 OA
ENDROOT
TORSDOF 0
ENDMDL
MODEL 7
REMARK VINA RESULT:      -6.5     18.827     21.845
REMARK  0 active torsions:
REMARK  status: ('A' for Active; 'I' for Inactive)
REMARK       I    between atoms: N_8  and  C_16 
ROOT
HETATM    1  C   UNK     0     147.589 123.843 124.676  0.00  0.00     0.005 A 
HETATM    2  C   UNK     0     149.030 123.315 124.623  0.00  0.00     0.007 A 
HETATM    3  C   UNK     0     150.179 124.265 124.272  0.00  0.00     0.044 A 
HETATM    4  C   UNK     0     147.298 125.312 124.381  0.00  0.00     0.028 A 
HETATM    5  C   UNK     0     149.887 125.736 123.976  0.00  0.00     0.040 A 
HETATM    6  C   UNK     0     148.441 126.265 124.030  0.00  0.00    -0.008 A 
HETATM    7  C   UNK     0     147.924 127.703 123.768  0.00  0.00     0.024 A 
HETATM    8  N   UNK     0     151.187 126.515 123.646  0.00  0.00    -0.283 N 
HETATM    9  C   UNK     0     148.726 128.967 123.388  0.00  0.00     0.128 A 
HETATM   10  C   UNK     0     150.251 129.101 123.176  0.00  0.00     0.015 A 
HETATM   11  C   UNK     0     151.345 128.017 123.289  0.00  0.00     0.042 A 
HETATM   12  C   UNK     0     152.821 128.384 123.030  0.00  0.00     0.044 A 
HETATM   13  C   UNK     0     153.202 129.834 122.658  0.00  0.00     0.007 A 
HETATM   14  C   UNK     0     152.097 130.917 122.547  0.00  0.00     0.005 A 
HETATM   15  C   UNK     0     150.628 130.544 122.806  0.00  0.00     0.030 A 
HETATM   16  C   UNK     0     152.479 125.697 123.675  0.00  0.00     0.271 C 
HETATM   17  N   UNK     0     152.434 124.205 124.016  0.00  0.00    -0.053 NA
HETATM   18  O   UNK     0     153.819 126.369 123.364  0.00  0.00    -0.154 OA
HETATM   19  O   UNK     0     147.908 130.246 123.198  0.00  0.00    -0.191 OA
ENDROOT
TORSDOF 0
ENDMDL
MODEL 8
REMARK VINA RESULT:      -6.5     33.541     34.474
REMARK  0 active torsions:
REMARK  status: ('A' for Active; 'I' for Inactive)
REMARK       I    between atoms: N_8  and  C_16 
ROOT
HETATM    1  C   UNK     0     137.716 116.551 153.363  0.00  0.00     0.005 A 
HETATM    2  C   UNK     0     138.156 115.176 152.840  0.00  0.00     0.007 A 
HETATM    3  C   UNK     0     137.293 114.439 151.812  0.00  0.00     0.044 A 
HETATM    4  C   UNK     0     136.422 117.186 152.862  0.00  0.00     0.028 A 
HETATM    5  C   UNK     0     135.997 115.075 151.309  0.00  0.00     0.040 A 
HETATM    6  C   UNK     0     135.557 116.455 151.835  0.00  0.00    -0.008 A 
HETATM    7  C   UNK     0     134.294 117.276 151.466  0.00  0.00     0.024 A 
HETATM    8  N   UNK     0     135.282 114.164 150.278  0.00  0.00    -0.283 N 
HETATM    9  C   UNK     0     133.160 116.918 150.481  0.00  0.00     0.128 A 
HETATM   10  C   UNK     0     133.012 115.645 149.618  0.00  0.00     0.015 A 
HETATM   11  C   UNK     0     133.950 114.421 149.525  0.00  0.00     0.042 A 
HETATM   12  C   UNK     0     133.597 113.251 148.584  0.00  0.00     0.044 A 
HETATM   13  C   UNK     0     132.307 113.304 147.738  0.00  0.00     0.007 A 
HETATM   14  C   UNK     0     131.369 114.536 147.836  0.00  0.00     0.005 A 
HETATM   15  C   UNK     0     131.727 115.700 148.776  0.00  0.00     0.030 A 
HETATM   16  C   UNK     0     135.982 112.840 149.962  0.00  0.00     0.271 C 
HETATM   17  N   UNK     0     137.303 112.488 150.651  0.00  0.00    -0.053 NA
HETATM   18  O   UNK     0     135.361 111.867 148.957  0.00  0.00    -0.154 OA
HETATM   19  O   UNK     0     132.044 117.955 150.341  0.00  0.00    -0.191 OA
ENDROOT
TORSDOF 0
ENDMDL
MODEL 9
REMARK VINA RESULT:      -6.4     47.272     49.891
REMARK  0 active torsions:
REMARK  status: ('A' for Active; 'I' for Inactive)
REMARK       I    between atoms: N_8  and  C_16 
ROOT
HETATM    1  C   UNK     0     113.813 111.304 116.950  0.00  0.00     0.005 A 
HETATM    2  C   UNK     0     115.062 111.735 116.168  0.00  0.00     0.007 A 
HETATM    3  C   UNK     0     114.979 111.952 114.655  0.00  0.00     0.044 A 
HETATM    4  C   UNK     0     112.487 111.092 116.223  0.00  0.00     0.028 A 
HETATM    5  C   UNK     0     113.651 111.740 113.927  0.00  0.00     0.040 A 
HETATM    6  C   UNK     0     112.398 111.308 114.712  0.00  0.00    -0.008 A 
HETATM    7  C   UNK     0     110.966 111.039 114.182  0.00  0.00     0.024 A 
HETATM    8  N   UNK     0     113.789 112.013 112.407  0.00  0.00    -0.283 N 
HETATM    9  C   UNK     0     110.435 111.136 112.735  0.00  0.00     0.128 A 
HETATM   10  C   UNK     0     111.211 111.528 111.458  0.00  0.00     0.015 A 
HETATM   11  C   UNK     0     112.698 111.918 111.308  0.00  0.00     0.042 A 
HETATM   12  C   UNK     0     113.263 112.275 109.918  0.00  0.00     0.044 A 
HETATM   13  C   UNK     0     112.341 112.244 108.679  0.00  0.00     0.007 A 
HETATM   14  C   UNK     0     110.849 111.851 108.838  0.00  0.00     0.005 A 
HETATM   15  C   UNK     0     110.292 111.496 110.227  0.00  0.00     0.030 A 
HETATM   16  C   UNK     0     115.182 112.431 111.929  0.00  0.00     0.271 C 
HETATM   17  N   UNK     0     116.330 112.556 112.933  0.00  0.00    -0.053 NA
HETATM   18  O   UNK     0     115.426 112.724 110.447  0.00  0.00    -0.154 OA
HETATM   19  O   UNK     0     108.954 110.802 112.543  0.00  0.00    -0.191 OA
ENDROOT
TORSDOF 0
ENDMDL
MODEL 10
REMARK VINA RESULT:      -6.3     52.097     53.043
REMARK  0 active torsions:
REMARK  status: ('A' for Active; 'I' for Inactive)
REMARK       I    between atoms: N_8  and  C_16 
ROOT
HETATM    1  C   UNK     0     109.100 118.289 113.151  0.00  0.00     0.005 A 
HETATM    2  C   UNK     0     109.279 118.768 111.703  0.00  0.00     0.007 A 
HETATM    3  C   UNK     0     109.730 117.781 110.623  0.00  0.00     0.044 A 
HETATM    4  C   UNK     0     109.370 116.833 113.517  0.00  0.00     0.028 A 
HETATM    5  C   UNK     0     109.999 116.321 110.989  0.00  0.00     0.040 A 
HETATM    6  C   UNK     0     109.820 115.842 112.442  0.00  0.00    -0.008 A 
HETATM    7  C   UNK     0     110.035 114.423 113.030  0.00  0.00     0.024 A 
HETATM    8  N   UNK     0     110.442 115.499 109.751  0.00  0.00    -0.283 N 
HETATM    9  C   UNK     0     110.485 113.134 112.307  0.00  0.00     0.128 A 
HETATM   10  C   UNK     0     110.829 112.949 110.813  0.00  0.00     0.015 A 
HETATM   11  C   UNK     0     110.812 113.994 109.676  0.00  0.00     0.042 A 
HETATM   12  C   UNK     0     111.199 113.578 108.242  0.00  0.00     0.044 A 
HETATM   13  C   UNK     0     111.603 112.117 107.945  0.00  0.00     0.007 A 
HETATM   14  C   UNK     0     111.618 111.073 109.092  0.00  0.00     0.005 A 
HETATM   15  C   UNK     0     111.231 111.495 110.519  0.00  0.00     0.030 A 
HETATM   16  C   UNK     0     110.526 116.273 108.433  0.00  0.00     0.271 C 
HETATM   17  N   UNK     0     110.182 117.764 108.398  0.00  0.00    -0.053 NA
HETATM   18  O   UNK     0     110.953 115.556 107.151  0.00  0.00    -0.154 OA
HETATM   19  O   UNK     0     110.603 111.884 113.182  0.00  0.00    -0.191 OA
ENDROOT
TORSDOF 0
ENDMDL
