MODEL 1
REMARK VINA RESULT:      -8.4      0.000      0.000
REMARK  0 active torsions:
REMARK  status: ('A' for Active; 'I' for Inactive)
ROOT
HETATM    1  O   UNK     0     163.557 109.138 129.947  0.00  0.00    -0.304 OA
HETATM    2  O   UNK     0     160.224 112.469 127.267  0.00  0.00    -0.152 OA
HETATM    3  N   UNK     0     160.141 109.831 128.016  0.00  0.00     0.418 N 
HETATM    4  N   UNK     0     162.173 111.124 128.653  0.00  0.00     0.440 N 
HETATM    5  C   UNK     0     161.087 108.885 128.777  0.00  0.00     0.326 A 
HETATM    6  C   UNK     0     160.073 107.738 128.611  0.00  0.00    -0.009 A 
HETATM    7  C   UNK     0     161.674 107.630 129.450  0.00  0.00     0.031 A 
HETATM    8  C   UNK     0     162.343 109.684 129.171  0.00  0.00     0.424 A 
HETATM    9  C   UNK     0     160.812 111.215 127.939  0.00  0.00     0.663 A 
HETATM   10  C   UNK     0     159.906 106.250 128.973  0.00  0.00    -0.032 A 
HETATM   11  C   UNK     0     163.056 107.695 130.127  0.00  0.00     0.072 A 
HETATM   12  C   UNK     0     158.965 108.470 127.832  0.00  0.00     0.024 A 
HETATM   13  C   UNK     0     160.880 106.311 129.445  0.00  0.00    -0.027 A 
HETATM   14  C   UNK     0     163.643 106.440 130.800  0.00  0.00     0.051 A 
HETATM   15  C   UNK     0     158.630 105.495 128.556  0.00  0.00     0.025 A 
HETATM   16  C   UNK     0     157.689 107.715 127.416  0.00  0.00     0.005 A 
HETATM   17  C   UNK     0     161.467 105.056 130.118  0.00  0.00     0.026 A 
HETATM   18  C   UNK     0     162.848 105.120 130.795  0.00  0.00     0.011 A 
HETATM   19  C   UNK     0     157.521 106.228 127.777  0.00  0.00     0.005 A 
ENDROOT
TORSDOF 0
ENDMDL
MODEL 2
REMARK VINA RESULT:      -7.6     45.880     48.877
REMARK  0 active torsions:
REMARK  status: ('A' for Active; 'I' for Inactive)
ROOT
HETATM    1  O   UNK     0     114.044  88.392 124.990  0.00  0.00    -0.304 OA
HETATM    2  O   UNK     0     119.381  87.863 124.202  0.00  0.00    -0.152 OA
HETATM    3  N   UNK     0     117.601  89.948 124.091  0.00  0.00     0.418 N 
HETATM    4  N   UNK     0     116.684  87.708 124.683  0.00  0.00     0.440 N 
HETATM    5  C   UNK     0     116.085  90.098 124.315  0.00  0.00     0.326 A 
HETATM    6  C   UNK     0     116.188  91.603 124.003  0.00  0.00    -0.009 A 
HETATM    7  C   UNK     0     114.675  90.706 124.432  0.00  0.00     0.031 A 
HETATM    8  C   UNK     0     115.518  88.714 124.681  0.00  0.00     0.424 A 
HETATM    9  C   UNK     0     117.971  88.471 124.319  0.00  0.00     0.663 A 
HETATM   10  C   UNK     0     115.293  92.852 123.908  0.00  0.00    -0.032 A 
HETATM   11  C   UNK     0     113.479  89.811 124.807  0.00  0.00     0.072 A 
HETATM   12  C   UNK     0     117.699  91.716 123.729  0.00  0.00     0.024 A 
HETATM   13  C   UNK     0     114.460  92.209 124.173  0.00  0.00    -0.027 A 
HETATM   14  C   UNK     0     112.069  90.419 124.923  0.00  0.00     0.051 A 
HETATM   15  C   UNK     0     115.908  94.214 123.539  0.00  0.00     0.025 A 
HETATM   16  C   UNK     0     118.314  93.078 123.359  0.00  0.00     0.005 A 
HETATM   17  C   UNK     0     113.050  92.817 124.290  0.00  0.00     0.026 A 
HETATM   18  C   UNK     0     111.855  91.922 124.664  0.00  0.00     0.011 A 
HETATM   19  C   UNK     0     117.419  94.327 123.264  0.00  0.00     0.005 A 
ENDROOT
TORSDOF 0
ENDMDL
MODEL 3
REMARK VINA RESULT:      -7.5     19.854     22.534
REMARK  0 active torsions:
REMARK  status: ('A' for Active; 'I' for Inactive)
ROOT
HETATM    1  O   UNK     0     151.761 124.291 124.144  0.00  0.00    -0.304 OA
HETATM    2  O   UNK     0     154.023 129.074 122.966  0.00  0.00    -0.152 OA
HETATM    3  N   UNK     0     151.456 128.182 123.345  0.00  0.00     0.418 N 
HETATM    4  N   UNK     0     153.281 126.501 123.565  0.00  0.00     0.440 N 
HETATM    5  C   UNK     0     150.813 126.824 123.679  0.00  0.00     0.326 A 
HETATM    6  C   UNK     0     149.419 127.476 123.645  0.00  0.00    -0.009 A 
HETATM    7  C   UNK     0     149.771 125.733 123.987  0.00  0.00     0.031 A 
HETATM    8  C   UNK     0     151.941 125.785 123.815  0.00  0.00     0.424 A 
HETATM    9  C   UNK     0     152.981 127.983 123.274  0.00  0.00     0.663 A 
HETATM   10  C   UNK     0     147.937 127.101 123.834  0.00  0.00    -0.032 A 
HETATM   11  C   UNK     0     150.227 124.287 124.259  0.00  0.00     0.072 A 
HETATM   12  C   UNK     0     149.809 128.927 123.310  0.00  0.00     0.024 A 
HETATM   13  C   UNK     0     148.273 126.087 124.023  0.00  0.00    -0.027 A 
HETATM   14  C   UNK     0     149.184 123.196 124.566  0.00  0.00     0.051 A 
HETATM   15  C   UNK     0     146.845 128.178 123.687  0.00  0.00     0.025 A 
HETATM   16  C   UNK     0     148.718 130.003 123.163  0.00  0.00     0.005 A 
HETATM   17  C   UNK     0     147.231 124.996 124.331  0.00  0.00     0.026 A 
HETATM   18  C   UNK     0     147.686 123.551 124.603  0.00  0.00     0.011 A 
HETATM   19  C   UNK     0     147.236 129.629 123.352  0.00  0.00     0.005 A 
ENDROOT
TORSDOF 0
ENDMDL
MODEL 4
REMARK VINA RESULT:      -7.5     27.076     28.832
REMARK  0 active torsions:
REMARK  status: ('A' for Active; 'I' for Inactive)
ROOT
HETATM    1  O   UNK     0     144.186 116.365 105.817  0.00  0.00    -0.304 OA
HETATM    2  O   UNK     0     145.537 111.313 107.243  0.00  0.00    -0.152 OA
HETATM    3  N   UNK     0     143.751 113.178 108.169  0.00  0.00     0.418 N 
HETATM    4  N   UNK     0     145.150 113.826 106.212  0.00  0.00     0.440 N 
HETATM    5  C   UNK     0     143.367 114.613 107.764  0.00  0.00     0.326 A 
HETATM    6  C   UNK     0     142.333 114.658 108.905  0.00  0.00    -0.009 A 
HETATM    7  C   UNK     0     142.682 115.992 107.731  0.00  0.00     0.031 A 
HETATM    8  C   UNK     0     144.232 115.014 106.555  0.00  0.00     0.424 A 
HETATM    9  C   UNK     0     144.853 112.692 107.210  0.00  0.00     0.663 A 
HETATM   10  C   UNK     0     141.294 115.616 109.518  0.00  0.00    -0.032 A 
HETATM   11  C   UNK     0     143.089 117.029 106.667  0.00  0.00     0.072 A 
HETATM   12  C   UNK     0     142.531 113.253 109.501  0.00  0.00     0.024 A 
HETATM   13  C   UNK     0     141.591 116.335 108.762  0.00  0.00    -0.027 A 
HETATM   14  C   UNK     0     142.404 118.408 106.635  0.00  0.00     0.051 A 
HETATM   15  C   UNK     0     140.453 115.167 110.728  0.00  0.00     0.025 A 
HETATM   16  C   UNK     0     141.691 112.805 110.712  0.00  0.00     0.005 A 
HETATM   17  C   UNK     0     140.906 117.714 108.729  0.00  0.00     0.026 A 
HETATM   18  C   UNK     0     141.313 118.750 107.666  0.00  0.00     0.011 A 
HETATM   19  C   UNK     0     140.652 113.761 111.325  0.00  0.00     0.005 A 
ENDROOT
TORSDOF 0
ENDMDL
MODEL 5
REMARK VINA RESULT:      -7.4     19.980     22.999
REMARK  0 active torsions:
REMARK  status: ('A' for Active; 'I' for Inactive)
ROOT
HETATM    1  O   UNK     0     150.932 129.894 123.114  0.00  0.00    -0.304 OA
HETATM    2  O   UNK     0     154.480 125.803 123.360  0.00  0.00    -0.152 OA
HETATM    3  N   UNK     0     151.759 126.031 123.630  0.00  0.00     0.418 N 
HETATM    4  N   UNK     0     153.028 128.123 123.158  0.00  0.00     0.440 N 
HETATM    5  C   UNK     0     150.751 127.193 123.560  0.00  0.00     0.326 A 
HETATM    6  C   UNK     0     149.599 126.211 123.844  0.00  0.00    -0.009 A 
HETATM    7  C   UNK     0     149.436 127.995 123.581  0.00  0.00     0.031 A 
HETATM    8  C   UNK     0     151.535 128.486 123.268  0.00  0.00     0.424 A 
HETATM    9  C   UNK     0     153.166 126.605 123.382  0.00  0.00     0.663 A 
HETATM   10  C   UNK     0     148.069 126.206 124.016  0.00  0.00    -0.032 A 
HETATM   11  C   UNK     0     149.458 129.516 123.339  0.00  0.00     0.072 A 
HETATM   12  C   UNK     0     150.391 124.896 123.962  0.00  0.00     0.024 A 
HETATM   13  C   UNK     0     148.100 127.276 123.844  0.00  0.00    -0.027 A 
HETATM   14  C   UNK     0     148.144 130.317 123.361  0.00  0.00     0.051 A 
HETATM   15  C   UNK     0     147.331 124.886 124.307  0.00  0.00     0.025 A 
HETATM   16  C   UNK     0     149.654 123.576 124.253  0.00  0.00     0.005 A 
HETATM   17  C   UNK     0     146.786 128.079 123.866  0.00  0.00     0.026 A 
HETATM   18  C   UNK     0     146.807 129.599 123.624  0.00  0.00     0.011 A 
HETATM   19  C   UNK     0     148.124 123.570 124.425  0.00  0.00     0.005 A 
ENDROOT
TORSDOF 0
ENDMDL
MODEL 6
REMARK VINA RESULT:      -7.3     33.808     35.061
REMARK  0 active torsions:
REMARK  status: ('A' for Active; 'I' for Inactive)
ROOT
HETATM    1  O   UNK     0     135.603 112.734 149.619  0.00  0.00    -0.304 OA
HETATM    2  O   UNK     0     132.046 111.035 145.898  0.00  0.00    -0.152 OA
HETATM    3  N   UNK     0     132.257 113.241 147.516  0.00  0.00     0.418 N 
HETATM    4  N   UNK     0     134.060 111.530 147.695  0.00  0.00     0.440 N 
HETATM    5  C   UNK     0     133.267 113.724 148.573  0.00  0.00     0.326 A 
HETATM    6  C   UNK     0     132.423 114.992 148.800  0.00  0.00    -0.009 A 
HETATM    7  C   UNK     0     133.967 114.574 149.649  0.00  0.00     0.031 A 
HETATM    8  C   UNK     0     134.381 112.666 148.684  0.00  0.00     0.424 A 
HETATM    9  C   UNK     0     132.746 111.886 146.973  0.00  0.00     0.663 A 
HETATM   10  C   UNK     0     132.427 116.274 149.653  0.00  0.00    -0.032 A 
HETATM   11  C   UNK     0     135.283 114.084 150.282  0.00  0.00     0.072 A 
HETATM   12  C   UNK     0     131.282 114.737 147.799  0.00  0.00     0.024 A 
HETATM   13  C   UNK     0     133.352 115.915 150.091  0.00  0.00    -0.027 A 
HETATM   14  C   UNK     0     135.983 114.936 151.358  0.00  0.00     0.051 A 
HETATM   15  C   UNK     0     131.289 117.300 149.505  0.00  0.00     0.025 A 
HETATM   16  C   UNK     0     130.144 115.764 147.650  0.00  0.00     0.005 A 
HETATM   17  C   UNK     0     134.053 116.766 151.166  0.00  0.00     0.026 A 
HETATM   18  C   UNK     0     135.368 116.277 151.800  0.00  0.00     0.011 A 
HETATM   19  C   UNK     0     130.147 117.045 148.503  0.00  0.00     0.005 A 
ENDROOT
TORSDOF 0
ENDMDL
MODEL 7
REMARK VINA RESULT:      -7.3     96.078     98.086
REMARK  0 active torsions:
REMARK  status: ('A' for Active; 'I' for Inactive)
ROOT
HETATM    1  O   UNK     0      64.093 127.179 113.887  0.00  0.00    -0.304 OA
HETATM    2  O   UNK     0      62.847 132.400 114.641  0.00  0.00    -0.152 OA
HETATM    3  N   UNK     0      64.980 130.801 115.289  0.00  0.00     0.418 N 
HETATM    4  N   UNK     0      63.096 129.730 114.060  0.00  0.00     0.440 N 
HETATM    5  C   UNK     0      65.335 129.318 115.075  0.00  0.00     0.326 A 
HETATM    6  C   UNK     0      66.674 129.533 115.804  0.00  0.00    -0.009 A 
HETATM    7  C   UNK     0      66.085 127.974 115.096  0.00  0.00     0.031 A 
HETATM    8  C   UNK     0      64.170 128.656 114.316  0.00  0.00     0.424 A 
HETATM    9  C   UNK     0      63.597 131.056 114.662  0.00  0.00     0.663 A 
HETATM   10  C   UNK     0      67.928 128.744 116.224  0.00  0.00    -0.032 A 
HETATM   11  C   UNK     0      65.452 126.728 114.449  0.00  0.00     0.072 A 
HETATM   12  C   UNK     0      66.558 131.031 116.141  0.00  0.00     0.024 A 
HETATM   13  C   UNK     0      67.469 127.875 115.764  0.00  0.00    -0.027 A 
HETATM   14  C   UNK     0      66.203 125.384 114.471  0.00  0.00     0.051 A 
HETATM   15  C   UNK     0      69.066 129.452 116.982  0.00  0.00     0.025 A 
HETATM   16  C   UNK     0      67.696 131.739 116.899  0.00  0.00     0.005 A 
HETATM   17  C   UNK     0      68.220 126.530 115.786  0.00  0.00     0.026 A 
HETATM   18  C   UNK     0      67.587 125.285 115.139  0.00  0.00     0.011 A 
HETATM   19  C   UNK     0      68.949 130.951 117.320  0.00  0.00     0.005 A 
ENDROOT
TORSDOF 0
ENDMDL
MODEL 8
REMARK VINA RESULT:      -7.2     38.584     41.367
REMARK  0 active torsions:
REMARK  status: ('A' for Active; 'I' for Inactive)
ROOT
HETATM    1  O   UNK     0     140.137 110.544  94.659  0.00  0.00    -0.304 OA
HETATM    2  O   UNK     0     139.307 112.525  99.636  0.00  0.00    -0.152 OA
HETATM    3  N   UNK     0     138.314 113.075  97.138  0.00  0.00     0.418 N 
HETATM    4  N   UNK     0     140.008 111.255  97.306  0.00  0.00     0.440 N 
HETATM    5  C   UNK     0     138.549 112.512  95.724  0.00  0.00     0.326 A 
HETATM    6  C   UNK     0     137.525 113.512  95.156  0.00  0.00    -0.009 A 
HETATM    7  C   UNK     0     138.457 112.286  94.204  0.00  0.00     0.031 A 
HETATM    8  C   UNK     0     139.596 111.388  95.829  0.00  0.00     0.424 A 
HETATM    9  C   UNK     0     139.215 112.298  98.116  0.00  0.00     0.663 A 
HETATM   10  C   UNK     0     136.892 113.916  93.812  0.00  0.00    -0.032 A 
HETATM   11  C   UNK     0     139.318 111.199  93.534  0.00  0.00     0.072 A 
HETATM   12  C   UNK     0     137.115 114.239  96.449  0.00  0.00     0.024 A 
HETATM   13  C   UNK     0     137.505 113.147  93.354  0.00  0.00    -0.027 A 
HETATM   14  C   UNK     0     139.226 110.973  92.013  0.00  0.00     0.051 A 
HETATM   15  C   UNK     0     135.849 115.047  93.761  0.00  0.00     0.025 A 
HETATM   16  C   UNK     0     136.072 115.371  96.399  0.00  0.00     0.005 A 
HETATM   17  C   UNK     0     137.413 112.920  91.833  0.00  0.00     0.026 A 
HETATM   18  C   UNK     0     138.273 111.834  91.163  0.00  0.00     0.011 A 
HETATM   19  C   UNK     0     135.439 115.775  95.055  0.00  0.00     0.005 A 
ENDROOT
TORSDOF 0
ENDMDL
MODEL 9
REMARK VINA RESULT:      -7.1     39.107     41.778
REMARK  0 active torsions:
REMARK  status: ('A' for Active; 'I' for Inactive)
ROOT
HETATM    1  O   UNK     0     140.056 110.764  94.409  0.00  0.00    -0.304 OA
HETATM    2  O   UNK     0     137.610 112.280  89.815  0.00  0.00    -0.152 OA
HETATM    3  N   UNK     0     137.436 113.035  92.447  0.00  0.00     0.418 N 
HETATM    4  N   UNK     0     139.066 111.235  91.893  0.00  0.00     0.440 N 
HETATM    5  C   UNK     0     138.130 112.605  93.752  0.00  0.00     0.326 A 
HETATM    6  C   UNK     0     137.296 113.635  94.535  0.00  0.00    -0.009 A 
HETATM    7  C   UNK     0     138.534 112.514  95.235  0.00  0.00     0.031 A 
HETATM    8  C   UNK     0     139.138 111.492  93.409  0.00  0.00     0.424 A 
HETATM    9  C   UNK     0     138.014 112.189  91.298  0.00  0.00     0.663 A 
HETATM   10  C   UNK     0     137.104 114.148  95.975  0.00  0.00    -0.032 A 
HETATM   11  C   UNK     0     139.608 111.504  95.681  0.00  0.00     0.072 A 
HETATM   12  C   UNK     0     136.467 114.238  93.387  0.00  0.00     0.024 A 
HETATM   13  C   UNK     0     137.862 113.432  96.274  0.00  0.00    -0.027 A 
HETATM   14  C   UNK     0     140.011 111.413  97.164  0.00  0.00     0.051 A 
HETATM   15  C   UNK     0     136.083 115.263  96.266  0.00  0.00     0.025 A 
HETATM   16  C   UNK     0     135.446 115.354  93.677  0.00  0.00     0.005 A 
HETATM   17  C   UNK     0     138.266 113.340  97.757  0.00  0.00     0.026 A 
HETATM   18  C   UNK     0     139.340 112.331  98.202  0.00  0.00     0.011 A 
HETATM   19  C   UNK     0     135.254 115.866  95.116  0.00  0.00     0.005 A 
ENDROOT
TORSDOF 0
ENDMDL
MODEL 10
REMARK VINA RESULT:      -7.0     95.628     98.492
REMARK  0 active torsions:
REMARK  status: ('A' for Active; 'I' for Inactive)
ROOT
HETATM    1  O   UNK     0      67.712 126.871 117.043  0.00  0.00    -0.304 OA
HETATM    2  O   UNK     0      63.249 124.597 114.972  0.00  0.00    -0.152 OA
HETATM    3  N   UNK     0      64.180 127.165 115.225  0.00  0.00     0.418 N 
HETATM    4  N   UNK     0      65.628 125.345 116.116  0.00  0.00     0.440 N 
HETATM    5  C   UNK     0      65.447 127.812 115.813  0.00  0.00     0.326 A 
HETATM    6  C   UNK     0      64.917 129.204 115.425  0.00  0.00    -0.009 A 
HETATM    7  C   UNK     0      66.489 128.857 116.253  0.00  0.00     0.031 A 
HETATM    8  C   UNK     0      66.342 126.687 116.364  0.00  0.00     0.424 A 
HETATM    9  C   UNK     0      64.291 125.641 115.412  0.00  0.00     0.663 A 
HETATM   10  C   UNK     0      65.326 130.687 115.506  0.00  0.00    -0.032 A 
HETATM   11  C   UNK     0      67.786 128.405 116.950  0.00  0.00     0.072 A 
HETATM   12  C   UNK     0      63.577 128.810 114.778  0.00  0.00     0.024 A 
HETATM   13  C   UNK     0      66.235 130.354 115.995  0.00  0.00    -0.027 A 
HETATM   14  C   UNK     0      68.828 129.450 117.389  0.00  0.00     0.051 A 
HETATM   15  C   UNK     0      64.395 131.775 114.940  0.00  0.00     0.025 A 
HETATM   16  C   UNK     0      62.645 129.899 114.212  0.00  0.00     0.005 A 
HETATM   17  C   UNK     0      67.277 131.398 116.435  0.00  0.00     0.026 A 
HETATM   18  C   UNK     0      68.574 130.947 117.132  0.00  0.00     0.011 A 
HETATM   19  C   UNK     0      63.054 131.380 114.293  0.00  0.00     0.005 A 
ENDROOT
TORSDOF 0
ENDMDL
