MODEL 1
REMARK VINA RESULT:     -11.7      0.000      0.000
REMARK  3 active torsions:
REMARK  status: ('A' for Active; 'I' for Inactive)
REMARK    1  A    between atoms: C_16  and  C_21 
REMARK    2  A    between atoms: C_24  and  O_62 
REMARK    3  A    between atoms: C_34  and  O_35 
ROOT
HETATM    1  C   UNK     0     153.723 114.867 130.664  0.00  0.00     0.018 A 
HETATM    2  C   UNK     0     153.297 116.073 129.806  0.00  0.00     0.166 A 
HETATM    3  C   UNK     0     154.791 113.888 130.140  0.00  0.00     0.004 A 
HETATM    4  N   UNK     0     153.939 116.300 128.424  0.00  0.00    -0.347 N 
HETATM    5  C   UNK     0     155.432 114.116 128.759  0.00  0.00     0.024 A 
HETATM    6  C   UNK     0     155.006 115.322 127.901  0.00  0.00     0.099 A 
HETATM    7  C   UNK     0     152.228 117.051 130.329  0.00  0.00     0.281 C 
HETATM    8  O   UNK     0     151.802 118.257 129.471  0.00  0.00    -0.189 OA
HETATM    9  O   UNK     0     152.444 118.485 128.089  0.00  0.00    -0.196 OA
HETATM   10  C   UNK     0     153.512 117.506 127.567  0.00  0.00     0.265 A 
HETATM   11  C   UNK     0     154.154 117.734 126.185  0.00  0.00     0.231 A 
HETATM   12  O   UNK     0     155.222 116.756 125.661  0.00  0.00    -0.216 OA
HETATM   13  C   UNK     0     150.518 117.803 132.234  0.00  0.00     0.175 A 
HETATM   14  C   UNK     0     150.092 119.008 131.377  0.00  0.00     0.075 A 
HETATM   15  O   UNK     0     151.586 116.824 131.711  0.00  0.00    -0.336 OA
HETATM   16  C   UNK     0     148.809 118.553 134.139  0.00  0.00     0.065 A 
HETATM   17  O   UNK     0     148.383 119.759 133.281  0.00  0.00    -0.317 OA
HETATM   18  C   UNK     0     149.877 117.575 133.615  0.00  0.00    -0.008 A 
HETATM   19  C   UNK     0     149.025 119.987 131.899  0.00  0.00     0.072 A 
HETATM   20  C   UNK     0     150.302 116.369 134.474  0.00  0.00     0.030 C 
HETATM   21  O   UNK     0     152.660 119.918 125.850  0.00  0.00    -0.365 OA
HETATM   22  C   UNK     0     153.728 118.939 125.328  0.00  0.00     0.149 A 
HETATM   23  C   UNK     0     152.234 121.123 124.992  0.00  0.00     0.151 A 
HETATM   24  C   UNK     0     152.876 121.351 123.612  0.00  0.00     0.021 A 
HETATM   25  C   UNK     0     154.370 119.166 123.946  0.00  0.00     0.030 A 
HETATM   26  C   UNK     0     153.944 120.372 123.088  0.00  0.00     0.004 A 
HETATM   27  C   UNK     0     151.166 122.102 125.516  0.00  0.00     0.071 C 
HETATM   28  C   UNK     0     150.740 123.308 124.658  0.00  0.00     0.066 C 
HETATM   29  C   UNK     0     149.030 124.060 126.563  0.00  0.00     0.028 C 
HETATM   30  C   UNK     0     149.672 124.287 125.181  0.00  0.00    -0.025 C 
HETATM   31  C   UNK     0     149.246 125.493 124.323  0.00  0.00     0.028 C 
HETATM   32  C   UNK     0     155.437 118.188 123.423  0.00  0.00     0.003 C 
HETATM   33  C   UNK     0     148.599 121.193 131.041  0.00  0.00    -0.021 C 
HETATM   34  C   UNK     0     149.240 121.421 129.660  0.00  0.00     0.028 C 
HETATM   35  C   UNK     0     147.531 122.172 131.565  0.00  0.00     0.048 C 
HETATM   36  C   UNK     0     147.105 123.378 130.707  0.00  0.00    -0.012 C 
HETATM   37  C   UNK     0     147.747 123.605 129.325  0.00  0.00     0.029 C 
HETATM   38  C   UNK     0     146.036 124.356 131.230  0.00  0.00     0.148 C 
HETATM   39  C   UNK     0     145.610 125.562 130.372  0.00  0.00     0.144 A 
HETATM   40  O   UNK     0     146.252 125.789 128.991  0.00  0.00    -0.322 OA
HETATM   41  O   UNK     0     145.394 124.129 132.612  0.00  0.00    -0.189 OA
HETATM   42  C   UNK     0     144.542 126.541 130.896  0.00  0.00     0.151 A 
HETATM   43  C   UNK     0     148.175 126.497 124.818  0.00  0.00     0.030 C 
HETATM   44  C   UNK     0     147.680 127.898 123.821  0.00  0.00    -0.026 C 
HETATM   45  C   UNK     0     144.116 127.746 130.038  0.00  0.00     0.004 A 
HETATM   46  C   UNK     0     144.795 127.939 128.641  0.00  0.00     0.002 A 
HETATM   47  C   UNK     0     145.826 126.995 128.133  0.00  0.00     0.175 A 
HETATM   48  O   UNK     0     143.901 126.313 132.277  0.00  0.00    -0.188 OA
HETATM   49  C   UNK     0     146.700 128.785 124.316  0.00  0.00    -0.005 C 
HETATM   50  C   UNK     0     146.100 128.437 125.785  0.00  0.00    -0.005 C 
HETATM   51  C   UNK     0     145.012 128.914 126.997  0.00  0.00    -0.024 C 
HETATM   52  C   UNK     0     143.057 128.687 130.596  0.00  0.00     0.033 C 
HETATM   53  O   UNK     0     153.145 118.689 126.640  0.00  0.00     0.000 OA
HETATM   54  C   UNK     0     144.165 130.181 126.771  0.00  0.00     0.031 C 
ENDROOT
BRANCH  16  55
HETATM   55  C   UNK     0     148.167 118.326 135.520  0.00  0.00     0.072 A 
HETATM   56  C   UNK     0     149.051 117.981 136.733  0.00  0.00     0.007 A 
HETATM   57  C   UNK     0     148.409 117.753 138.114  0.00  0.00     0.056 A 
HETATM   58  C   UNK     0     146.883 117.872 138.283  0.00  0.00     0.127 A 
HETATM   59  C   UNK     0     145.999 118.217 137.071  0.00  0.00     0.093 A 
HETATM   60  O   UNK     0     146.242 117.644 139.664  0.00  0.00    -0.193 OA
HETATM   61  C   UNK     0     146.641 118.445 135.690  0.00  0.00     0.053 A 
BRANCH  59  62
HETATM   62  O   UNK     0     144.473 118.336 137.240  0.00  0.00    -0.331 OA
HETATM   63  C   UNK     0     143.792 119.713 137.137  0.00  0.00     0.181 C 
ENDBRANCH  59  62
ENDBRANCH  16  55
BRANCH  28  64
HETATM   64  O   UNK     0     151.382 123.536 123.276  0.00  0.00    -0.333 OA
HETATM   65  C   UNK     0     152.588 124.482 123.134  0.00  0.00     0.181 C 
ENDBRANCH  28  64
TORSDOF 3
ENDMDL
MODEL 2
REMARK VINA RESULT:     -11.4     32.121     40.263
REMARK  3 active torsions:
REMARK  status: ('A' for Active; 'I' for Inactive)
REMARK    1  A    between atoms: C_16  and  C_21 
REMARK    2  A    between atoms: C_24  and  O_62 
REMARK    3  A    between atoms: C_34  and  O_35 
ROOT
HETATM    1  C   UNK     0     127.085 100.428 146.565  0.00  0.00     0.018 A 
HETATM    2  C   UNK     0     125.587 100.129 146.760  0.00  0.00     0.166 A 
HETATM    3  C   UNK     0     128.088  99.269 146.407  0.00  0.00     0.004 A 
HETATM    4  N   UNK     0     125.091  98.672 146.796  0.00  0.00    -0.347 N 
HETATM    5  C   UNK     0     127.591  97.813 146.443  0.00  0.00     0.024 A 
HETATM    6  C   UNK     0     126.093  97.514 146.637  0.00  0.00     0.099 A 
HETATM    7  C   UNK     0     124.585 101.288 146.918  0.00  0.00     0.281 C 
HETATM    8  O   UNK     0     123.087 100.989 147.112  0.00  0.00    -0.189 OA
HETATM    9  O   UNK     0     122.590  99.531 147.149  0.00  0.00    -0.196 OA
HETATM   10  C   UNK     0     123.593  98.374 146.990  0.00  0.00     0.265 A 
HETATM   11  C   UNK     0     123.096  96.916 147.026  0.00  0.00     0.231 A 
HETATM   12  O   UNK     0     124.098  95.757 146.868  0.00  0.00    -0.216 OA
HETATM   13  C   UNK     0     124.079 103.905 147.040  0.00  0.00     0.175 A 
HETATM   14  C   UNK     0     122.581 103.606 147.235  0.00  0.00     0.075 A 
HETATM   15  O   UNK     0     125.081 102.746 146.882  0.00  0.00    -0.336 OA
HETATM   16  C   UNK     0     123.573 106.521 147.163  0.00  0.00     0.065 A 
HETATM   17  O   UNK     0     122.075 106.222 147.357  0.00  0.00    -0.317 OA
HETATM   18  C   UNK     0     124.575 105.362 147.004  0.00  0.00    -0.008 A 
HETATM   19  C   UNK     0     121.578 104.764 147.393  0.00  0.00     0.072 A 
HETATM   20  C   UNK     0     126.073 105.662 146.810  0.00  0.00     0.030 C 
HETATM   21  O   UNK     0     120.596  97.775 147.379  0.00  0.00    -0.365 OA
HETATM   22  C   UNK     0     121.599  96.617 147.221  0.00  0.00     0.149 A 
HETATM   23  C   UNK     0     119.099  97.476 147.574  0.00  0.00     0.151 A 
HETATM   24  C   UNK     0     118.603  96.019 147.610  0.00  0.00     0.021 A 
HETATM   25  C   UNK     0     121.103  95.159 147.257  0.00  0.00     0.030 A 
HETATM   26  C   UNK     0     119.605  94.860 147.451  0.00  0.00     0.004 A 
HETATM   27  C   UNK     0     118.097  98.635 147.732  0.00  0.00     0.071 C 
HETATM   28  C   UNK     0     116.598  98.336 147.927  0.00  0.00     0.066 C 
HETATM   29  C   UNK     0     116.091 100.953 148.049  0.00  0.00     0.028 C 
HETATM   30  C   UNK     0     115.595  99.495 148.085  0.00  0.00    -0.025 C 
HETATM   31  C   UNK     0     114.097  99.196 148.280  0.00  0.00     0.028 C 
HETATM   32  C   UNK     0     122.105  94.001 147.098  0.00  0.00     0.003 C 
HETATM   33  C   UNK     0     120.080 104.465 147.588  0.00  0.00    -0.021 C 
HETATM   34  C   UNK     0     119.584 103.008 147.624  0.00  0.00     0.028 C 
HETATM   35  C   UNK     0     119.078 105.624 147.746  0.00  0.00     0.048 C 
HETATM   36  C   UNK     0     117.580 105.325 147.941  0.00  0.00    -0.012 C 
HETATM   37  C   UNK     0     117.084 103.867 147.977  0.00  0.00     0.029 C 
HETATM   38  C   UNK     0     116.577 106.484 148.099  0.00  0.00     0.148 C 
HETATM   39  C   UNK     0     115.079 106.185 148.294  0.00  0.00     0.144 A 
HETATM   40  O   UNK     0     114.583 104.727 148.330  0.00  0.00    -0.322 OA
HETATM   41  O   UNK     0     117.073 107.942 148.063  0.00  0.00    -0.189 OA
HETATM   42  C   UNK     0     114.077 107.344 148.452  0.00  0.00     0.151 A 
HETATM   43  C   UNK     0     113.061 100.336 148.442  0.00  0.00     0.030 C 
HETATM   44  C   UNK     0     111.321  99.989 148.668  0.00  0.00    -0.026 C 
HETATM   45  C   UNK     0     112.579 107.045 148.647  0.00  0.00     0.004 A 
HETATM   46  C   UNK     0     112.120 105.550 148.677  0.00  0.00     0.002 A 
HETATM   47  C   UNK     0     113.085 104.428 148.524  0.00  0.00     0.175 A 
HETATM   48  O   UNK     0     114.573 108.801 148.416  0.00  0.00    -0.188 OA
HETATM   49  C   UNK     0     110.416 101.063 148.812  0.00  0.00    -0.005 C 
HETATM   50  C   UNK     0     111.063 102.552 148.756  0.00  0.00    -0.005 C 
HETATM   51  C   UNK     0     110.741 104.216 148.834  0.00  0.00    -0.024 C 
HETATM   52  C   UNK     0     111.625 108.222 148.799  0.00  0.00     0.033 C 
HETATM   53  O   UNK     0     122.109  97.982 147.181  0.00  0.00     0.000 OA
HETATM   54  C   UNK     0     109.285 104.679 149.039  0.00  0.00     0.031 C 
ENDROOT
BRANCH  16  55
HETATM   55  C   UNK     0     124.069 107.979 147.127  0.00  0.00     0.072 A 
HETATM   56  C   UNK     0     124.545 108.597 145.799  0.00  0.00     0.007 A 
HETATM   57  C   UNK     0     125.041 110.055 145.763  0.00  0.00     0.056 A 
HETATM   58  C   UNK     0     125.061 110.894 147.054  0.00  0.00     0.127 A 
HETATM   59  C   UNK     0     124.585 110.275 148.382  0.00  0.00     0.093 A 
HETATM   60  O   UNK     0     125.557 112.351 147.018  0.00  0.00    -0.193 OA
HETATM   61  C   UNK     0     124.089 108.818 148.418  0.00  0.00     0.053 A 
BRANCH  59  62
HETATM   62  O   UNK     0     124.605 111.114 149.673  0.00  0.00    -0.331 OA
HETATM   63  C   UNK     0     123.504 112.160 149.929  0.00  0.00     0.181 C 
ENDBRANCH  59  62
ENDBRANCH  16  55
BRANCH  28  64
HETATM   64  O   UNK     0     116.102  96.878 147.963  0.00  0.00    -0.333 OA
HETATM   65  C   UNK     0     115.633  96.257 149.291  0.00  0.00     0.181 C 
ENDBRANCH  28  64
TORSDOF 3
ENDMDL
MODEL 3
REMARK VINA RESULT:     -11.3     29.613     36.909
REMARK  3 active torsions:
REMARK  status: ('A' for Active; 'I' for Inactive)
REMARK    1  A    between atoms: C_16  and  C_21 
REMARK    2  A    between atoms: C_24  and  O_62 
REMARK    3  A    between atoms: C_34  and  O_35 
ROOT
HETATM    1  C   UNK     0     122.383  98.620 146.925  0.00  0.00     0.018 A 
HETATM    2  C   UNK     0     123.604  97.691 146.794  0.00  0.00     0.166 A 
HETATM    3  C   UNK     0     120.968  98.021 147.028  0.00  0.00     0.004 A 
HETATM    4  N   UNK     0     123.410  96.163 146.766  0.00  0.00    -0.347 N 
HETATM    5  C   UNK     0     120.774  96.494 147.000  0.00  0.00     0.024 A 
HETATM    6  C   UNK     0     121.995  95.565 146.869  0.00  0.00     0.099 A 
HETATM    7  C   UNK     0     125.020  98.290 146.691  0.00  0.00     0.281 C 
HETATM    8  O   UNK     0     126.241  97.361 146.560  0.00  0.00    -0.189 OA
HETATM    9  O   UNK     0     126.048  95.833 146.532  0.00  0.00    -0.196 OA
HETATM   10  C   UNK     0     124.632  95.235 146.635  0.00  0.00     0.265 A 
HETATM   11  C   UNK     0     124.439  93.707 146.608  0.00  0.00     0.231 A 
HETATM   12  O   UNK     0     123.023  93.108 146.711  0.00  0.00    -0.216 OA
HETATM   13  C   UNK     0     126.629 100.416 146.615  0.00  0.00     0.175 A 
HETATM   14  C   UNK     0     127.850  99.487 146.484  0.00  0.00     0.075 A 
HETATM   15  O   UNK     0     125.214  99.818 146.718  0.00  0.00    -0.336 OA
HETATM   16  C   UNK     0     128.238 102.542 146.540  0.00  0.00     0.065 A 
HETATM   17  O   UNK     0     129.459 101.613 146.409  0.00  0.00    -0.317 OA
HETATM   18  C   UNK     0     126.823 101.943 146.643  0.00  0.00    -0.008 A 
HETATM   19  C   UNK     0     129.266 100.085 146.381  0.00  0.00     0.072 A 
HETATM   20  C   UNK     0     125.602 102.873 146.773  0.00  0.00     0.030 C 
HETATM   21  O   UNK     0     127.075  93.376 146.374  0.00  0.00    -0.365 OA
HETATM   22  C   UNK     0     125.659  92.778 146.477  0.00  0.00     0.149 A 
HETATM   23  C   UNK     0     128.295  92.447 146.243  0.00  0.00     0.151 A 
HETATM   24  C   UNK     0     128.102  90.920 146.216  0.00  0.00     0.021 A 
HETATM   25  C   UNK     0     125.465  91.251 146.450  0.00  0.00     0.030 A 
HETATM   26  C   UNK     0     126.686  90.322 146.319  0.00  0.00     0.004 A 
HETATM   27  C   UNK     0     129.710  93.046 146.140  0.00  0.00     0.071 C 
HETATM   28  C   UNK     0     130.933  92.117 146.009  0.00  0.00     0.066 C 
HETATM   29  C   UNK     0     132.542  94.243 145.934  0.00  0.00     0.028 C 
HETATM   30  C   UNK     0     132.348  92.715 145.906  0.00  0.00    -0.025 C 
HETATM   31  C   UNK     0     133.569  91.786 145.775  0.00  0.00     0.028 C 
HETATM   32  C   UNK     0     124.050  90.653 146.553  0.00  0.00     0.003 C 
HETATM   33  C   UNK     0     130.487  99.156 146.250  0.00  0.00    -0.021 C 
HETATM   34  C   UNK     0     130.294  97.629 146.223  0.00  0.00     0.028 C 
HETATM   35  C   UNK     0     131.903  99.754 146.147  0.00  0.00     0.048 C 
HETATM   36  C   UNK     0     133.124  98.825 146.016  0.00  0.00    -0.012 C 
HETATM   37  C   UNK     0     132.930  97.298 145.989  0.00  0.00     0.029 C 
HETATM   38  C   UNK     0     134.539  99.424 145.913  0.00  0.00     0.148 C 
HETATM   39  C   UNK     0     135.760  98.495 145.783  0.00  0.00     0.144 A 
HETATM   40  O   UNK     0     135.566  96.967 145.755  0.00  0.00    -0.322 OA
HETATM   41  O   UNK     0     134.733 100.952 145.941  0.00  0.00    -0.189 OA
HETATM   42  C   UNK     0     137.176  99.094 145.679  0.00  0.00     0.151 A 
HETATM   43  C   UNK     0     135.007  92.353 145.669  0.00  0.00     0.030 C 
HETATM   44  C   UNK     0     136.425  91.274 145.517  0.00  0.00    -0.026 C 
HETATM   45  C   UNK     0     138.397  98.165 145.549  0.00  0.00     0.004 A 
HETATM   46  C   UNK     0     138.153  96.620 145.525  0.00  0.00     0.002 A 
HETATM   47  C   UNK     0     136.788  96.038 145.624  0.00  0.00     0.175 A 
HETATM   48  O   UNK     0     137.369 100.621 145.707  0.00  0.00    -0.188 OA
HETATM   49  C   UNK     0     137.716  91.840 145.424  0.00  0.00    -0.005 C 
HETATM   50  C   UNK     0     137.788  93.462 145.465  0.00  0.00    -0.005 C 
HETATM   51  C   UNK     0     138.811  94.814 145.417  0.00  0.00    -0.024 C 
HETATM   52  C   UNK     0     139.777  98.801 145.450  0.00  0.00     0.033 C 
HETATM   53  O   UNK     0     125.800  94.229 146.507  0.00  0.00     0.000 OA
HETATM   54  C   UNK     0     140.329  94.588 145.281  0.00  0.00     0.031 C 
ENDROOT
BRANCH  16  55
HETATM   55  C   UNK     0     128.432 104.070 146.567  0.00  0.00     0.072 A 
HETATM   56  C   UNK     0     129.373 104.708 147.606  0.00  0.00     0.007 A 
HETATM   57  C   UNK     0     129.567 106.235 147.634  0.00  0.00     0.056 A 
HETATM   58  C   UNK     0     128.820 107.125 146.622  0.00  0.00     0.127 A 
HETATM   59  C   UNK     0     127.880 106.487 145.583  0.00  0.00     0.093 A 
HETATM   60  O   UNK     0     129.015 108.652 146.650  0.00  0.00    -0.193 OA
HETATM   61  C   UNK     0     127.686 104.960 145.556  0.00  0.00     0.053 A 
BRANCH  59  62
HETATM   62  O   UNK     0     127.134 107.376 144.572  0.00  0.00    -0.331 OA
HETATM   63  C   UNK     0     125.992 108.294 145.049  0.00  0.00     0.181 C 
ENDBRANCH  59  62
ENDBRANCH  16  55
BRANCH  28  64
HETATM   64  O   UNK     0     130.738  90.589 145.982  0.00  0.00    -0.333 OA
HETATM   65  C   UNK     0     131.057  89.796 144.702  0.00  0.00     0.181 C 
ENDBRANCH  28  64
TORSDOF 3
ENDMDL
MODEL 4
REMARK VINA RESULT:     -11.0     51.499     58.893
REMARK  3 active torsions:
REMARK  status: ('A' for Active; 'I' for Inactive)
REMARK    1  A    between atoms: C_16  and  C_21 
REMARK    2  A    between atoms: C_24  and  O_62 
REMARK    3  A    between atoms: C_34  and  O_35 
ROOT
HETATM    1  C   UNK     0      93.282 142.823 107.669  0.00  0.00     0.018 A 
HETATM    2  C   UNK     0      94.562 142.073 108.084  0.00  0.00     0.166 A 
HETATM    3  C   UNK     0      93.380 144.109 106.828  0.00  0.00     0.004 A 
HETATM    4  N   UNK     0      95.941 142.610 107.656  0.00  0.00    -0.347 N 
HETATM    5  C   UNK     0      94.759 144.645 106.400  0.00  0.00     0.024 A 
HETATM    6  C   UNK     0      96.039 143.896 106.815  0.00  0.00     0.099 A 
HETATM    7  C   UNK     0      94.463 140.787 108.926  0.00  0.00     0.281 C 
HETATM    8  O   UNK     0      95.743 140.038 109.340  0.00  0.00    -0.189 OA
HETATM    9  O   UNK     0      97.123 140.575 108.913  0.00  0.00    -0.196 OA
HETATM   10  C   UNK     0      97.220 141.861 108.071  0.00  0.00     0.265 A 
HETATM   11  C   UNK     0      98.600 142.397 107.644  0.00  0.00     0.231 A 
HETATM   12  O   UNK     0      98.699 143.683 106.802  0.00  0.00    -0.216 OA
HETATM   13  C   UNK     0      92.985 138.965 110.195  0.00  0.00     0.175 A 
HETATM   14  C   UNK     0      94.266 138.215 110.610  0.00  0.00     0.075 A 
HETATM   15  O   UNK     0      93.084 140.251 109.353  0.00  0.00    -0.336 OA
HETATM   16  C   UNK     0      91.508 137.142 111.465  0.00  0.00     0.065 A 
HETATM   17  O   UNK     0      92.789 136.393 111.879  0.00  0.00    -0.317 OA
HETATM   18  C   UNK     0      91.607 138.428 110.623  0.00  0.00    -0.008 A 
HETATM   19  C   UNK     0      94.168 136.930 111.451  0.00  0.00     0.072 A 
HETATM   20  C   UNK     0      90.326 139.177 110.209  0.00  0.00     0.030 C 
HETATM   21  O   UNK     0      99.782 140.363 108.899  0.00  0.00    -0.365 OA
HETATM   22  C   UNK     0      99.879 141.648 108.058  0.00  0.00     0.149 A 
HETATM   23  C   UNK     0     101.061 139.614 109.313  0.00  0.00     0.151 A 
HETATM   24  C   UNK     0     102.440 140.150 108.886  0.00  0.00     0.021 A 
HETATM   25  C   UNK     0     101.258 142.185 107.630  0.00  0.00     0.030 A 
HETATM   26  C   UNK     0     102.538 141.436 108.044  0.00  0.00     0.004 A 
HETATM   27  C   UNK     0     100.963 138.328 110.155  0.00  0.00     0.071 C 
HETATM   28  C   UNK     0     102.244 137.578 110.570  0.00  0.00     0.066 C 
HETATM   29  C   UNK     0     100.766 135.755 111.840  0.00  0.00     0.028 C 
HETATM   30  C   UNK     0     102.145 136.292 111.412  0.00  0.00    -0.025 C 
HETATM   31  C   UNK     0     103.425 135.543 111.826  0.00  0.00     0.028 C 
HETATM   32  C   UNK     0     101.356 143.471 106.788  0.00  0.00     0.003 C 
HETATM   33  C   UNK     0      95.448 136.181 111.866  0.00  0.00    -0.021 C 
HETATM   34  C   UNK     0      96.827 136.717 111.439  0.00  0.00     0.028 C 
HETATM   35  C   UNK     0      95.350 134.895 112.708  0.00  0.00     0.048 C 
HETATM   36  C   UNK     0      96.630 134.145 113.122  0.00  0.00    -0.012 C 
HETATM   37  C   UNK     0      98.009 134.682 112.694  0.00  0.00     0.029 C 
HETATM   38  C   UNK     0      96.531 132.859 113.964  0.00  0.00     0.148 C 
HETATM   39  C   UNK     0      97.811 132.110 114.378  0.00  0.00     0.144 A 
HETATM   40  O   UNK     0      99.190 132.647 113.951  0.00  0.00    -0.322 OA
HETATM   41  O   UNK     0      95.152 132.323 114.392  0.00  0.00    -0.189 OA
HETATM   42  C   UNK     0      97.713 130.824 115.220  0.00  0.00     0.151 A 
HETATM   43  C   UNK     0     103.364 134.247 112.672  0.00  0.00     0.030 C 
HETATM   44  C   UNK     0     104.851 133.377 113.154  0.00  0.00    -0.026 C 
HETATM   45  C   UNK     0      98.993 130.075 115.635  0.00  0.00     0.004 A 
HETATM   46  C   UNK     0     100.372 130.656 115.178  0.00  0.00     0.002 A 
HETATM   47  C   UNK     0     100.470 131.898 114.365  0.00  0.00     0.175 A 
HETATM   48  O   UNK     0      96.334 130.288 115.647  0.00  0.00    -0.188 OA
HETATM   49  C   UNK     0     104.742 132.200 113.926  0.00  0.00    -0.005 C 
HETATM   50  C   UNK     0     103.234 131.738 114.312  0.00  0.00    -0.005 C 
HETATM   51  C   UNK     0     102.294 130.578 115.120  0.00  0.00    -0.024 C 
HETATM   52  C   UNK     0      98.847 128.809 116.467  0.00  0.00     0.033 C 
HETATM   53  O   UNK     0      98.556 141.174 108.442  0.00  0.00     0.000 OA
HETATM   54  C   UNK     0     103.009 129.416 115.835  0.00  0.00     0.031 C 
ENDROOT
BRANCH  16  55
HETATM   55  C   UNK     0      90.130 136.605 111.892  0.00  0.00     0.072 A 
HETATM   56  C   UNK     0      89.296 135.759 110.913  0.00  0.00     0.007 A 
HETATM   57  C   UNK     0      87.917 135.222 111.340  0.00  0.00     0.056 A 
HETATM   58  C   UNK     0      87.372 135.532 112.748  0.00  0.00     0.127 A 
HETATM   59  C   UNK     0      88.206 136.378 113.727  0.00  0.00     0.093 A 
HETATM   60  O   UNK     0      85.994 134.995 113.175  0.00  0.00    -0.193 OA
HETATM   61  C   UNK     0      89.585 136.915 113.299  0.00  0.00     0.053 A 
BRANCH  59  62
HETATM   62  O   UNK     0      87.662 136.688 115.133  0.00  0.00    -0.331 OA
HETATM   63  C   UNK     0      87.194 138.114 115.481  0.00  0.00     0.181 C 
ENDBRANCH  59  62
ENDBRANCH  16  55
BRANCH  28  64
HETATM   64  O   UNK     0     103.622 138.115 110.142  0.00  0.00    -0.333 OA
HETATM   65  C   UNK     0     104.478 138.918 111.138  0.00  0.00     0.181 C 
ENDBRANCH  28  64
TORSDOF 3
ENDMDL
MODEL 5
REMARK VINA RESULT:     -11.0     33.774     40.917
REMARK  3 active torsions:
REMARK  status: ('A' for Active; 'I' for Inactive)
REMARK    1  A    between atoms: C_16  and  C_21 
REMARK    2  A    between atoms: C_24  and  O_62 
REMARK    3  A    between atoms: C_34  and  O_35 
ROOT
HETATM    1  C   UNK     0     119.131  94.322 147.899  0.00  0.00     0.018 A 
HETATM    2  C   UNK     0     119.788  95.702 147.708  0.00  0.00     0.166 A 
HETATM    3  C   UNK     0     119.952  93.040 147.667  0.00  0.00     0.004 A 
HETATM    4  N   UNK     0     121.266  95.799 147.285  0.00  0.00    -0.347 N 
HETATM    5  C   UNK     0     121.429  93.138 147.244  0.00  0.00     0.024 A 
HETATM    6  C   UNK     0     122.086  94.517 147.053  0.00  0.00     0.099 A 
HETATM    7  C   UNK     0     118.967  96.985 147.940  0.00  0.00     0.281 C 
HETATM    8  O   UNK     0     119.624  98.364 147.749  0.00  0.00    -0.189 OA
HETATM    9  O   UNK     0     121.102  98.462 147.326  0.00  0.00    -0.196 OA
HETATM   10  C   UNK     0     121.922  97.179 147.094  0.00  0.00     0.265 A 
HETATM   11  C   UNK     0     123.400  97.278 146.671  0.00  0.00     0.231 A 
HETATM   12  O   UNK     0     124.221  95.995 146.438  0.00  0.00    -0.216 OA
HETATM   13  C   UNK     0     116.669  98.170 148.596  0.00  0.00     0.175 A 
HETATM   14  C   UNK     0     117.326  99.549 148.405  0.00  0.00     0.075 A 
HETATM   15  O   UNK     0     117.490  96.887 148.363  0.00  0.00    -0.336 OA
HETATM   16  C   UNK     0     114.371  99.355 149.251  0.00  0.00     0.065 A 
HETATM   17  O   UNK     0     115.028 100.734 149.060  0.00  0.00    -0.317 OA
HETATM   18  C   UNK     0     115.192  98.072 149.019  0.00  0.00    -0.008 A 
HETATM   19  C   UNK     0     116.506 100.832 148.637  0.00  0.00     0.072 A 
HETATM   20  C   UNK     0     114.534  96.693 149.210  0.00  0.00     0.030 C 
HETATM   21  O   UNK     0     123.237  99.939 146.712  0.00  0.00    -0.365 OA
HETATM   22  C   UNK     0     124.057  98.656 146.480  0.00  0.00     0.149 A 
HETATM   23  C   UNK     0     123.894 101.318 146.521  0.00  0.00     0.151 A 
HETATM   24  C   UNK     0     125.371 101.416 146.098  0.00  0.00     0.021 A 
HETATM   25  C   UNK     0     125.535  98.754 146.056  0.00  0.00     0.030 A 
HETATM   26  C   UNK     0     126.192 100.133 145.865  0.00  0.00     0.004 A 
HETATM   27  C   UNK     0     123.073 102.601 146.753  0.00  0.00     0.071 C 
HETATM   28  C   UNK     0     123.730 103.981 146.562  0.00  0.00     0.066 C 
HETATM   29  C   UNK     0     121.432 105.166 147.217  0.00  0.00     0.028 C 
HETATM   30  C   UNK     0     122.909 105.264 146.794  0.00  0.00    -0.025 C 
HETATM   31  C   UNK     0     123.566 106.643 146.603  0.00  0.00     0.028 C 
HETATM   32  C   UNK     0     126.355  97.472 145.824  0.00  0.00     0.003 C 
HETATM   33  C   UNK     0     117.163 102.212 148.446  0.00  0.00    -0.021 C 
HETATM   34  C   UNK     0     118.640 102.310 148.023  0.00  0.00     0.028 C 
HETATM   35  C   UNK     0     116.342 103.495 148.678  0.00  0.00     0.048 C 
HETATM   36  C   UNK     0     116.999 104.874 148.487  0.00  0.00    -0.012 C 
HETATM   37  C   UNK     0     118.477 104.971 148.064  0.00  0.00     0.029 C 
HETATM   38  C   UNK     0     116.178 106.157 148.719  0.00  0.00     0.148 C 
HETATM   39  C   UNK     0     116.835 107.536 148.528  0.00  0.00     0.144 A 
HETATM   40  O   UNK     0     118.313 107.634 148.105  0.00  0.00    -0.322 OA
HETATM   41  O   UNK     0     114.700 106.059 149.142  0.00  0.00    -0.189 OA
HETATM   42  C   UNK     0     116.014 108.819 148.760  0.00  0.00     0.151 A 
HETATM   43  C   UNK     0     122.772 107.954 146.828  0.00  0.00     0.030 C 
HETATM   44  C   UNK     0     123.535 109.556 146.606  0.00  0.00    -0.026 C 
HETATM   45  C   UNK     0     116.671 110.199 148.570  0.00  0.00     0.004 A 
HETATM   46  C   UNK     0     118.175 110.250 148.139  0.00  0.00     0.002 A 
HETATM   47  C   UNK     0     118.970 109.013 147.914  0.00  0.00     0.175 A 
HETATM   48  O   UNK     0     114.537 108.721 149.184  0.00  0.00    -0.188 OA
HETATM   49  C   UNK     0     122.768 110.722 146.823  0.00  0.00    -0.005 C 
HETATM   50  C   UNK     0     121.223 110.486 147.266  0.00  0.00    -0.005 C 
HETATM   51  C   UNK     0     119.761 111.240 147.683  0.00  0.00    -0.024 C 
HETATM   52  C   UNK     0     115.822 111.439 148.810  0.00  0.00     0.033 C 
HETATM   53  O   UNK     0     122.662  98.521 146.879  0.00  0.00     0.000 OA
HETATM   54  C   UNK     0     119.701 112.780 147.697  0.00  0.00     0.031 C 
ENDROOT
BRANCH  16  55
HETATM   55  C   UNK     0     112.893  99.257 149.674  0.00  0.00     0.072 A 
HETATM   56  C   UNK     0     111.805  99.952 148.835  0.00  0.00     0.007 A 
HETATM   57  C   UNK     0     110.327  99.855 149.258  0.00  0.00     0.056 A 
HETATM   58  C   UNK     0     109.938  99.063 150.521  0.00  0.00     0.127 A 
HETATM   59  C   UNK     0     111.026  98.368 151.360  0.00  0.00     0.093 A 
HETATM   60  O   UNK     0     108.460  98.966 150.943  0.00  0.00    -0.193 OA
HETATM   61  C   UNK     0     112.504  98.466 150.937  0.00  0.00     0.053 A 
BRANCH  59  62
HETATM   62  O   UNK     0     110.637  97.577 152.622  0.00  0.00    -0.331 OA
HETATM   63  C   UNK     0     110.147  96.122 152.498  0.00  0.00     0.181 C 
ENDBRANCH  59  62
ENDBRANCH  16  55
BRANCH  28  64
HETATM   64  O   UNK     0     125.208 104.078 146.139  0.00  0.00    -0.333 OA
HETATM   65  C   UNK     0     125.571 104.502 144.704  0.00  0.00     0.181 C 
ENDBRANCH  28  64
TORSDOF 3
ENDMDL
MODEL 6
REMARK VINA RESULT:     -10.9     48.026     49.597
REMARK  3 active torsions:
REMARK  status: ('A' for Active; 'I' for Inactive)
REMARK    1  A    between atoms: C_16  and  C_21 
REMARK    2  A    between atoms: C_24  and  O_62 
REMARK    3  A    between atoms: C_34  and  O_35 
ROOT
HETATM    1  C   UNK     0     128.549  87.549 103.948  0.00  0.00     0.018 A 
HETATM    2  C   UNK     0     127.017  87.693 104.022  0.00  0.00     0.166 A 
HETATM    3  C   UNK     0     129.235  86.308 104.550  0.00  0.00     0.004 A 
HETATM    4  N   UNK     0     126.172  86.596 104.697  0.00  0.00    -0.347 N 
HETATM    5  C   UNK     0     128.390  85.213 105.226  0.00  0.00     0.024 A 
HETATM    6  C   UNK     0     126.859  85.357 105.299  0.00  0.00     0.099 A 
HETATM    7  C   UNK     0     126.331  88.933 103.420  0.00  0.00     0.281 C 
HETATM    8  O   UNK     0     124.799  89.077 103.493  0.00  0.00    -0.189 OA
HETATM    9  O   UNK     0     123.953  87.980 104.169  0.00  0.00    -0.196 OA
HETATM   10  C   UNK     0     124.641  86.741 104.770  0.00  0.00     0.265 A 
HETATM   11  C   UNK     0     123.795  85.645 105.446  0.00  0.00     0.231 A 
HETATM   12  O   UNK     0     124.481  84.404 106.048  0.00  0.00    -0.216 OA
HETATM   13  C   UNK     0     126.489  91.270 102.142  0.00  0.00     0.175 A 
HETATM   14  C   UNK     0     124.957  91.414 102.215  0.00  0.00     0.075 A 
HETATM   15  O   UNK     0     127.175  90.029 102.744  0.00  0.00    -0.336 OA
HETATM   16  C   UNK     0     126.647  93.606 100.864  0.00  0.00     0.065 A 
HETATM   17  O   UNK     0     125.116  93.750 100.938  0.00  0.00    -0.317 OA
HETATM   18  C   UNK     0     127.334  92.365 101.467  0.00  0.00    -0.008 A 
HETATM   19  C   UNK     0     124.270  92.653 101.613  0.00  0.00     0.072 A 
HETATM   20  C   UNK     0     128.865  92.222 101.393  0.00  0.00     0.030 C 
HETATM   21  O   UNK     0     121.577  87.028 104.917  0.00  0.00    -0.365 OA
HETATM   22  C   UNK     0     122.264  85.788 105.519  0.00  0.00     0.149 A 
HETATM   23  C   UNK     0     120.046  87.172 104.991  0.00  0.00     0.151 A 
HETATM   24  C   UNK     0     119.201  86.076 105.666  0.00  0.00     0.021 A 
HETATM   25  C   UNK     0     121.419  84.692 106.195  0.00  0.00     0.030 A 
HETATM   26  C   UNK     0     119.888  84.836 106.268  0.00  0.00     0.004 A 
HETATM   27  C   UNK     0     119.360  88.412 104.389  0.00  0.00     0.071 C 
HETATM   28  C   UNK     0     117.827  88.556 104.462  0.00  0.00     0.066 C 
HETATM   29  C   UNK     0     117.985  90.893 103.184  0.00  0.00     0.028 C 
HETATM   30  C   UNK     0     117.140  89.796 103.860  0.00  0.00    -0.025 C 
HETATM   31  C   UNK     0     115.609  89.940 103.933  0.00  0.00     0.028 C 
HETATM   32  C   UNK     0     122.106  83.452 106.796  0.00  0.00     0.003 C 
HETATM   33  C   UNK     0     122.738  92.797 101.687  0.00  0.00    -0.021 C 
HETATM   34  C   UNK     0     121.893  91.701 102.362  0.00  0.00     0.028 C 
HETATM   35  C   UNK     0     122.052  94.037 101.085  0.00  0.00     0.048 C 
HETATM   36  C   UNK     0     120.520  94.181 101.158  0.00  0.00    -0.012 C 
HETATM   37  C   UNK     0     119.675  93.085 101.834  0.00  0.00     0.029 C 
HETATM   38  C   UNK     0     119.834  95.422 100.556  0.00  0.00     0.148 C 
HETATM   39  C   UNK     0     118.302  95.566 100.629  0.00  0.00     0.144 A 
HETATM   40  O   UNK     0     117.457  94.469 101.305  0.00  0.00    -0.322 OA
HETATM   41  O   UNK     0     120.678  96.518  99.880  0.00  0.00    -0.189 OA
HETATM   42  C   UNK     0     117.615  96.806 100.027  0.00  0.00     0.151 A 
HETATM   43  C   UNK     0     114.885  91.174 103.339  0.00  0.00     0.030 C 
HETATM   44  C   UNK     0     113.106  91.341 103.424  0.00  0.00    -0.026 C 
HETATM   45  C   UNK     0     116.084  96.950 100.100  0.00  0.00     0.004 A 
HETATM   46  C   UNK     0     115.265  95.812 100.796  0.00  0.00     0.002 A 
HETATM   47  C   UNK     0     115.926  94.613 101.378  0.00  0.00     0.175 A 
HETATM   48  O   UNK     0     118.460  97.901  99.352  0.00  0.00    -0.188 OA
HETATM   49  C   UNK     0     112.493  92.484 102.867  0.00  0.00    -0.005 C 
HETATM   50  C   UNK     0     113.492  93.567 102.183  0.00  0.00    -0.005 C 
HETATM   51  C   UNK     0     113.592  95.053 101.371  0.00  0.00    -0.024 C 
HETATM   52  C   UNK     0     115.449  98.192  99.492  0.00  0.00     0.033 C 
HETATM   53  O   UNK     0     123.100  86.803 104.889  0.00  0.00     0.000 OA
HETATM   54  C   UNK     0     112.292  95.827 101.081  0.00  0.00     0.031 C 
ENDROOT
BRANCH  16  55
HETATM   55  C   UNK     0     127.492  94.702 100.189  0.00  0.00     0.072 A 
HETATM   56  C   UNK     0     127.521  96.124 100.779  0.00  0.00     0.007 A 
HETATM   57  C   UNK     0     128.366  97.221 100.103  0.00  0.00     0.056 A 
HETATM   58  C   UNK     0     129.182  96.895  98.838  0.00  0.00     0.127 A 
HETATM   59  C   UNK     0     129.152  95.473  98.248  0.00  0.00     0.093 A 
HETATM   60  O   UNK     0     130.026  97.991  98.163  0.00  0.00    -0.193 OA
HETATM   61  C   UNK     0     128.308  94.376  98.924  0.00  0.00     0.053 A 
BRANCH  59  62
HETATM   62  O   UNK     0     129.967  95.147  96.983  0.00  0.00    -0.331 OA
HETATM   63  C   UNK     0     131.494  94.963  97.077  0.00  0.00     0.181 C 
ENDBRANCH  59  62
ENDBRANCH  16  55
BRANCH  28  64
HETATM   64  O   UNK     0     116.982  87.460 105.138  0.00  0.00    -0.333 OA
HETATM   65  C   UNK     0     116.100  86.532 104.283  0.00  0.00     0.181 C 
ENDBRANCH  28  64
TORSDOF 3
ENDMDL
MODEL 7
REMARK VINA RESULT:     -10.8     32.251     41.573
REMARK  3 active torsions:
REMARK  status: ('A' for Active; 'I' for Inactive)
REMARK    1  A    between atoms: C_16  and  C_21 
REMARK    2  A    between atoms: C_24  and  O_62 
REMARK    3  A    between atoms: C_34  and  O_35 
ROOT
HETATM    1  C   UNK     0     113.728 109.114 149.316  0.00  0.00     0.018 A 
HETATM    2  C   UNK     0     114.166 107.651 149.120  0.00  0.00     0.166 A 
HETATM    3  C   UNK     0     112.243 109.449 149.549  0.00  0.00     0.004 A 
HETATM    4  N   UNK     0     113.119 106.522 149.157  0.00  0.00    -0.347 N 
HETATM    5  C   UNK     0     111.196 108.321 149.586  0.00  0.00     0.024 A 
HETATM    6  C   UNK     0     111.634 106.857 149.390  0.00  0.00     0.099 A 
HETATM    7  C   UNK     0     115.651 107.316 148.887  0.00  0.00     0.281 C 
HETATM    8  O   UNK     0     116.089 105.853 148.691  0.00  0.00    -0.189 OA
HETATM    9  O   UNK     0     115.042 104.723 148.728  0.00  0.00    -0.196 OA
HETATM   10  C   UNK     0     113.557 105.059 148.961  0.00  0.00     0.265 A 
HETATM   11  C   UNK     0     112.510 103.929 148.998  0.00  0.00     0.231 A 
HETATM   12  O   UNK     0     111.025 104.264 149.231  0.00  0.00    -0.216 OA
HETATM   13  C   UNK     0     118.184 108.110 148.617  0.00  0.00     0.175 A 
HETATM   14  C   UNK     0     118.622 106.647 148.421  0.00  0.00     0.075 A 
HETATM   15  O   UNK     0     116.699 108.445 148.850  0.00  0.00    -0.336 OA
HETATM   16  C   UNK     0     120.716 108.904 148.346  0.00  0.00     0.065 A 
HETATM   17  O   UNK     0     121.154 107.441 148.150  0.00  0.00    -0.317 OA
HETATM   18  C   UNK     0     119.230 109.239 148.580  0.00  0.00    -0.008 A 
HETATM   19  C   UNK     0     120.107 106.311 148.188  0.00  0.00     0.072 A 
HETATM   20  C   UNK     0     118.794 110.702 148.775  0.00  0.00     0.030 C 
HETATM   21  O   UNK     0     114.432 102.131 148.569  0.00  0.00    -0.365 OA
HETATM   22  C   UNK     0     112.948 102.467 148.802  0.00  0.00     0.149 A 
HETATM   23  C   UNK     0     114.870 100.669 148.373  0.00  0.00     0.151 A 
HETATM   24  C   UNK     0     113.824  99.540 148.410  0.00  0.00     0.021 A 
HETATM   25  C   UNK     0     111.900 101.338 148.840  0.00  0.00     0.030 A 
HETATM   26  C   UNK     0     112.338  99.875 148.644  0.00  0.00     0.004 A 
HETATM   27  C   UNK     0     116.355 100.334 148.140  0.00  0.00     0.071 C 
HETATM   28  C   UNK     0     116.793  98.870 147.944  0.00  0.00     0.066 C 
HETATM   29  C   UNK     0     119.326  99.664 147.674  0.00  0.00     0.028 C 
HETATM   30  C   UNK     0     118.279  98.535 147.711  0.00  0.00    -0.025 C 
HETATM   31  C   UNK     0     118.717  97.072 147.515  0.00  0.00     0.028 C 
HETATM   32  C   UNK     0     110.416 101.673 149.073  0.00  0.00     0.003 C 
HETATM   33  C   UNK     0     120.544 104.847 147.992  0.00  0.00    -0.021 C 
HETATM   34  C   UNK     0     119.498 103.719 148.029  0.00  0.00     0.028 C 
HETATM   35  C   UNK     0     122.030 104.513 147.758  0.00  0.00     0.048 C 
HETATM   36  C   UNK     0     122.468 103.049 147.563  0.00  0.00    -0.012 C 
HETATM   37  C   UNK     0     121.420 101.921 147.600  0.00  0.00     0.029 C 
HETATM   38  C   UNK     0     123.953 102.715 147.329  0.00  0.00     0.148 C 
HETATM   39  C   UNK     0     124.391 101.251 147.134  0.00  0.00     0.144 A 
HETATM   40  O   UNK     0     123.343 100.123 147.171  0.00  0.00    -0.322 OA
HETATM   41  O   UNK     0     125.000 103.843 147.292  0.00  0.00    -0.189 OA
HETATM   42  C   UNK     0     125.876 100.917 146.900  0.00  0.00     0.151 A 
HETATM   43  C   UNK     0     120.201  96.698 147.279  0.00  0.00     0.030 C 
HETATM   44  C   UNK     0     120.710  94.998 147.051  0.00  0.00    -0.026 C 
HETATM   45  C   UNK     0     126.314  99.453 146.704  0.00  0.00     0.004 A 
HETATM   46  C   UNK     0     125.216  98.339 146.750  0.00  0.00     0.002 A 
HETATM   47  C   UNK     0     123.781  98.659 146.975  0.00  0.00     0.175 A 
HETATM   48  O   UNK     0     126.922 102.045 146.863  0.00  0.00    -0.188 OA
HETATM   49  C   UNK     0     122.075  94.709 146.838  0.00  0.00    -0.005 C 
HETATM   50  C   UNK     0     123.080  95.985 146.821  0.00  0.00    -0.005 C 
HETATM   51  C   UNK     0     124.691  96.490 146.649  0.00  0.00    -0.024 C 
HETATM   52  C   UNK     0     127.792  99.169 146.477  0.00  0.00     0.033 C 
HETATM   53  O   UNK     0     113.907 103.564 148.774  0.00  0.00     0.000 OA
HETATM   54  C   UNK     0     125.777  95.426 146.402  0.00  0.00     0.031 C 
ENDROOT
BRANCH  16  55
HETATM   55  C   UNK     0     121.763 110.033 148.309  0.00  0.00     0.072 A 
HETATM   56  C   UNK     0     121.726 111.153 149.366  0.00  0.00     0.007 A 
HETATM   57  C   UNK     0     122.773 112.281 149.328  0.00  0.00     0.056 A 
HETATM   58  C   UNK     0     123.858 112.290 148.235  0.00  0.00     0.127 A 
HETATM   59  C   UNK     0     123.895 111.170 147.179  0.00  0.00     0.093 A 
HETATM   60  O   UNK     0     124.905 113.418 148.198  0.00  0.00    -0.193 OA
HETATM   61  C   UNK     0     122.848 110.041 147.216  0.00  0.00     0.053 A 
BRANCH  59  62
HETATM   62  O   UNK     0     124.979 111.178 146.085  0.00  0.00    -0.331 OA
HETATM   63  C   UNK     0     125.416 109.858 145.424  0.00  0.00     0.181 C 
ENDBRANCH  59  62
ENDBRANCH  16  55
BRANCH  28  64
HETATM   64  O   UNK     0     115.746  97.741 147.981  0.00  0.00    -0.333 OA
HETATM   65  C   UNK     0     115.327  97.037 146.679  0.00  0.00     0.181 C 
ENDBRANCH  28  64
TORSDOF 3
ENDMDL
MODEL 8
REMARK VINA RESULT:     -10.8     47.457     51.330
REMARK  3 active torsions:
REMARK  status: ('A' for Active; 'I' for Inactive)
REMARK    1  A    between atoms: C_16  and  C_21 
REMARK    2  A    between atoms: C_24  and  O_62 
REMARK    3  A    between atoms: C_34  and  O_35 
ROOT
HETATM    1  C   UNK     0     113.905  82.969 117.949  0.00  0.00     0.018 A 
HETATM    2  C   UNK     0     114.888  82.366 118.968  0.00  0.00     0.166 A 
HETATM    3  C   UNK     0     113.799  82.372 116.533  0.00  0.00     0.004 A 
HETATM    4  N   UNK     0     115.767  81.164 118.572  0.00  0.00    -0.347 N 
HETATM    5  C   UNK     0     114.677  81.171 116.138  0.00  0.00     0.024 A 
HETATM    6  C   UNK     0     115.661  80.567 117.157  0.00  0.00     0.099 A 
HETATM    7  C   UNK     0     114.994  82.963 120.384  0.00  0.00     0.281 C 
HETATM    8  O   UNK     0     115.978  82.359 121.403  0.00  0.00    -0.189 OA
HETATM    9  O   UNK     0     116.857  81.158 121.008  0.00  0.00    -0.196 OA
HETATM   10  C   UNK     0     116.750  80.561 119.592  0.00  0.00     0.265 A 
HETATM   11  C   UNK     0     117.629  79.359 119.197  0.00  0.00     0.231 A 
HETATM   12  O   UNK     0     117.524  78.761 117.781  0.00  0.00    -0.216 OA
HETATM   13  C   UNK     0     114.221  84.763 122.196  0.00  0.00     0.175 A 
HETATM   14  C   UNK     0     115.205  84.159 123.215  0.00  0.00     0.075 A 
HETATM   15  O   UNK     0     114.115  84.165 120.780  0.00  0.00    -0.336 OA
HETATM   16  C   UNK     0     113.448  86.561 124.007  0.00  0.00     0.065 A 
HETATM   17  O   UNK     0     114.432  85.958 125.027  0.00  0.00    -0.317 OA
HETATM   18  C   UNK     0     113.343  85.964 122.592  0.00  0.00    -0.008 A 
HETATM   19  C   UNK     0     115.311  84.756 124.631  0.00  0.00     0.072 A 
HETATM   20  C   UNK     0     112.359  86.568 121.573  0.00  0.00     0.030 C 
HETATM   21  O   UNK     0     118.719  79.352 121.631  0.00  0.00    -0.365 OA
HETATM   22  C   UNK     0     118.613  78.755 120.215  0.00  0.00     0.149 A 
HETATM   23  C   UNK     0     119.702  78.749 122.650  0.00  0.00     0.151 A 
HETATM   24  C   UNK     0     120.580  77.548 122.254  0.00  0.00     0.021 A 
HETATM   25  C   UNK     0     119.491  77.554 119.819  0.00  0.00     0.030 A 
HETATM   26  C   UNK     0     120.475  76.950 120.839  0.00  0.00     0.004 A 
HETATM   27  C   UNK     0     119.807  79.346 124.065  0.00  0.00     0.071 C 
HETATM   28  C   UNK     0     120.792  78.742 125.085  0.00  0.00     0.066 C 
HETATM   29  C   UNK     0     120.019  80.542 126.897  0.00  0.00     0.028 C 
HETATM   30  C   UNK     0     120.897  79.340 126.501  0.00  0.00    -0.025 C 
HETATM   31  C   UNK     0     121.881  78.736 127.520  0.00  0.00     0.028 C 
HETATM   32  C   UNK     0     119.385  76.957 118.404  0.00  0.00     0.003 C 
HETATM   33  C   UNK     0     116.295  84.152 125.650  0.00  0.00    -0.021 C 
HETATM   34  C   UNK     0     117.173  82.951 125.255  0.00  0.00     0.028 C 
HETATM   35  C   UNK     0     116.400  84.750 127.066  0.00  0.00     0.048 C 
HETATM   36  C   UNK     0     117.384  84.146 128.085  0.00  0.00    -0.012 C 
HETATM   37  C   UNK     0     118.262  82.944 127.689  0.00  0.00     0.029 C 
HETATM   38  C   UNK     0     117.489  84.744 129.501  0.00  0.00     0.148 C 
HETATM   39  C   UNK     0     118.473  84.140 130.520  0.00  0.00     0.144 A 
HETATM   40  O   UNK     0     119.351  82.938 130.124  0.00  0.00    -0.322 OA
HETATM   41  O   UNK     0     116.611  85.945 129.897  0.00  0.00    -0.189 OA
HETATM   42  C   UNK     0     118.578  84.737 131.936  0.00  0.00     0.151 A 
HETATM   43  C   UNK     0     122.013  79.311 128.952  0.00  0.00     0.030 C 
HETATM   44  C   UNK     0     123.156  78.610 130.137  0.00  0.00    -0.026 C 
HETATM   45  C   UNK     0     119.562  84.134 132.955  0.00  0.00     0.004 A 
HETATM   46  C   UNK     0     120.435  82.914 132.510  0.00  0.00     0.002 A 
HETATM   47  C   UNK     0     120.335  82.334 131.143  0.00  0.00     0.175 A 
HETATM   48  O   UNK     0     117.700  85.938 132.332  0.00  0.00    -0.188 OA
HETATM   49  C   UNK     0     123.240  79.170 131.430  0.00  0.00    -0.005 C 
HETATM   50  C   UNK     0     122.262  80.433 131.724  0.00  0.00    -0.005 C 
HETATM   51  C   UNK     0     121.771  81.578 132.877  0.00  0.00    -0.024 C 
HETATM   52  C   UNK     0     119.633  84.757 134.343  0.00  0.00     0.033 C 
HETATM   53  O   UNK     0     117.764  79.892 120.550  0.00  0.00     0.000 OA
HETATM   54  C   UNK     0     122.420  81.546 134.274  0.00  0.00     0.031 C 
ENDROOT
BRANCH  16  55
HETATM   55  C   UNK     0     112.570  87.763 124.403  0.00  0.00     0.072 A 
HETATM   56  C   UNK     0     111.244  87.534 125.154  0.00  0.00     0.007 A 
HETATM   57  C   UNK     0     110.366  88.735 125.550  0.00  0.00     0.056 A 
HETATM   58  C   UNK     0     110.813  90.166 125.196  0.00  0.00     0.127 A 
HETATM   59  C   UNK     0     112.138  90.395 124.446  0.00  0.00     0.093 A 
HETATM   60  O   UNK     0     109.934  91.367 125.592  0.00  0.00    -0.193 OA
HETATM   61  C   UNK     0     113.016  89.194 124.049  0.00  0.00     0.053 A 
BRANCH  59  62
HETATM   62  O   UNK     0     112.585  91.825 124.092  0.00  0.00    -0.331 OA
HETATM   63  C   UNK     0     111.916  92.575 122.924  0.00  0.00     0.181 C 
ENDBRANCH  59  62
ENDBRANCH  16  55
BRANCH  28  64
HETATM   64  O   UNK     0     121.670  77.541 124.689  0.00  0.00    -0.333 OA
HETATM   65  C   UNK     0     123.166  77.747 124.389  0.00  0.00     0.181 C 
ENDBRANCH  28  64
TORSDOF 3
ENDMDL
MODEL 9
REMARK VINA RESULT:     -10.8      7.570     15.782
REMARK  3 active torsions:
REMARK  status: ('A' for Active; 'I' for Inactive)
REMARK    1  A    between atoms: C_16  and  C_21 
REMARK    2  A    between atoms: C_24  and  O_62 
REMARK    3  A    between atoms: C_34  and  O_35 
ROOT
HETATM    1  C   UNK     0     152.518 116.451 127.752  0.00  0.00     0.018 A 
HETATM    2  C   UNK     0     153.672 117.092 126.959  0.00  0.00     0.166 A 
HETATM    3  C   UNK     0     151.158 117.168 127.848  0.00  0.00     0.004 A 
HETATM    4  N   UNK     0     153.466 118.449 126.260  0.00  0.00    -0.347 N 
HETATM    5  C   UNK     0     150.953 118.524 127.149  0.00  0.00     0.024 A 
HETATM    6  C   UNK     0     152.107 119.165 126.356  0.00  0.00     0.099 A 
HETATM    7  C   UNK     0     155.032 116.375 126.864  0.00  0.00     0.281 C 
HETATM    8  O   UNK     0     156.186 117.015 126.070  0.00  0.00    -0.189 OA
HETATM    9  O   UNK     0     155.981 118.373 125.371  0.00  0.00    -0.196 OA
HETATM   10  C   UNK     0     154.621 119.088 125.467  0.00  0.00     0.265 A 
HETATM   11  C   UNK     0     154.416 120.446 124.768  0.00  0.00     0.231 A 
HETATM   12  O   UNK     0     153.056 121.163 124.863  0.00  0.00    -0.216 OA
HETATM   13  C   UNK     0     156.598 114.301 127.467  0.00  0.00     0.175 A 
HETATM   14  C   UNK     0     157.752 114.941 126.673  0.00  0.00     0.075 A 
HETATM   15  O   UNK     0     155.238 115.017 127.562  0.00  0.00    -0.336 OA
HETATM   16  C   UNK     0     158.164 112.227 128.070  0.00  0.00     0.065 A 
HETATM   17  O   UNK     0     159.318 112.868 127.277  0.00  0.00    -0.317 OA
HETATM   18  C   UNK     0     156.804 112.944 128.165  0.00  0.00    -0.008 A 
HETATM   19  C   UNK     0     159.112 114.225 126.577  0.00  0.00     0.072 A 
HETATM   20  C   UNK     0     155.650 112.303 128.959  0.00  0.00     0.030 C 
HETATM   21  O   UNK     0     156.929 120.370 123.879  0.00  0.00    -0.365 OA
HETATM   22  C   UNK     0     155.569 121.086 123.975  0.00  0.00     0.149 A 
HETATM   23  C   UNK     0     158.082 121.010 123.086  0.00  0.00     0.151 A 
HETATM   24  C   UNK     0     157.877 122.367 122.387  0.00  0.00     0.021 A 
HETATM   25  C   UNK     0     155.363 122.443 123.276  0.00  0.00     0.030 A 
HETATM   26  C   UNK     0     156.517 123.084 122.482  0.00  0.00     0.004 A 
HETATM   27  C   UNK     0     159.442 120.293 122.990  0.00  0.00     0.071 C 
HETATM   28  C   UNK     0     160.597 120.934 122.196  0.00  0.00     0.066 C 
HETATM   29  C   UNK     0     162.163 118.860 122.800  0.00  0.00     0.028 C 
HETATM   30  C   UNK     0     161.957 120.217 122.101  0.00  0.00    -0.025 C 
HETATM   31  C   UNK     0     163.111 120.858 121.307  0.00  0.00     0.028 C 
HETATM   32  C   UNK     0     154.003 123.159 123.371  0.00  0.00     0.003 C 
HETATM   33  C   UNK     0     160.266 114.866 125.784  0.00  0.00    -0.021 C 
HETATM   34  C   UNK     0     160.061 116.222 125.085  0.00  0.00     0.028 C 
HETATM   35  C   UNK     0     161.626 114.149 125.689  0.00  0.00     0.048 C 
HETATM   36  C   UNK     0     162.780 114.789 124.895  0.00  0.00    -0.012 C 
HETATM   37  C   UNK     0     162.574 116.147 124.196  0.00  0.00     0.029 C 
HETATM   38  C   UNK     0     164.140 114.072 124.800  0.00  0.00     0.148 C 
HETATM   39  C   UNK     0     165.294 114.713 124.006  0.00  0.00     0.144 A 
HETATM   40  O   UNK     0     165.088 116.070 123.308  0.00  0.00    -0.322 OA
HETATM   41  O   UNK     0     164.346 112.715 125.498  0.00  0.00    -0.189 OA
HETATM   42  C   UNK     0     166.654 113.996 123.911  0.00  0.00     0.151 A 
HETATM   43  C   UNK     0     164.491 120.166 121.190  0.00  0.00     0.030 C 
HETATM   44  C   UNK     0     165.832 120.910 120.268  0.00  0.00    -0.026 C 
HETATM   45  C   UNK     0     167.808 114.636 123.117  0.00  0.00     0.004 A 
HETATM   46  C   UNK     0     167.555 116.016 122.424  0.00  0.00     0.002 A 
HETATM   47  C   UNK     0     166.242 116.710 122.514  0.00  0.00     0.175 A 
HETATM   48  O   UNK     0     166.860 112.640 124.609  0.00  0.00    -0.188 OA
HETATM   49  C   UNK     0     167.072 120.239 120.191  0.00  0.00    -0.005 C 
HETATM   50  C   UNK     0     167.162 118.816 120.970  0.00  0.00    -0.005 C 
HETATM   51  C   UNK     0     168.159 117.497 121.354  0.00  0.00    -0.024 C 
HETATM   52  C   UNK     0     169.135 113.892 123.050  0.00  0.00     0.033 C 
HETATM   53  O   UNK     0     155.723 119.803 124.650  0.00  0.00     0.000 OA
HETATM   54  C   UNK     0     169.605 117.485 120.824  0.00  0.00     0.031 C 
ENDROOT
BRANCH  16  55
HETATM   55  C   UNK     0     158.370 110.870 128.769  0.00  0.00     0.072 A 
HETATM   56  C   UNK     0     158.461 110.801 130.304  0.00  0.00     0.007 A 
HETATM   57  C   UNK     0     158.667 109.443 131.003  0.00  0.00     0.056 A 
HETATM   58  C   UNK     0     158.782 108.156 130.166  0.00  0.00     0.127 A 
HETATM   59  C   UNK     0     158.691 108.225 128.630  0.00  0.00     0.093 A 
HETATM   60  O   UNK     0     158.988 106.799 130.864  0.00  0.00    -0.193 OA
HETATM   61  C   UNK     0     158.485 109.582 127.932  0.00  0.00     0.053 A 
BRANCH  59  62
HETATM   62  O   UNK     0     158.806 106.938 127.793  0.00  0.00    -0.331 OA
HETATM   63  C   UNK     0     157.653 105.916 127.790  0.00  0.00     0.181 C 
ENDBRANCH  59  62
ENDBRANCH  16  55
BRANCH  28  64
HETATM   64  O   UNK     0     160.391 122.291 121.498  0.00  0.00    -0.333 OA
HETATM   65  C   UNK     0     161.070 123.555 122.055  0.00  0.00     0.181 C 
ENDBRANCH  28  64
TORSDOF 3
ENDMDL
MODEL 10
REMARK VINA RESULT:     -10.6     28.274     36.276
REMARK  3 active torsions:
REMARK  status: ('A' for Active; 'I' for Inactive)
REMARK    1  A    between atoms: C_16  and  C_21 
REMARK    2  A    between atoms: C_24  and  O_62 
REMARK    3  A    between atoms: C_34  and  O_35 
ROOT
HETATM    1  C   UNK     0     124.190  93.526 146.162  0.00  0.00     0.018 A 
HETATM    2  C   UNK     0     125.056  94.798 146.217  0.00  0.00     0.166 A 
HETATM    3  C   UNK     0     122.655  93.636 146.212  0.00  0.00     0.004 A 
HETATM    4  N   UNK     0     124.386  96.181 146.321  0.00  0.00    -0.347 N 
HETATM    5  C   UNK     0     121.986  95.019 146.317  0.00  0.00     0.024 A 
HETATM    6  C   UNK     0     122.852  96.291 146.371  0.00  0.00     0.099 A 
HETATM    7  C   UNK     0     126.592  94.688 146.167  0.00  0.00     0.281 C 
HETATM    8  O   UNK     0     127.457  95.960 146.221  0.00  0.00    -0.189 OA
HETATM    9  O   UNK     0     126.788  97.344 146.326  0.00  0.00    -0.196 OA
HETATM   10  C   UNK     0     125.253  97.453 146.375  0.00  0.00     0.265 A 
HETATM   11  C   UNK     0     124.584  98.837 146.480  0.00  0.00     0.231 A 
HETATM   12  O   UNK     0     123.048  98.948 146.530  0.00  0.00    -0.216 OA
HETATM   13  C   UNK     0     128.797  93.194 146.012  0.00  0.00     0.175 A 
HETATM   14  C   UNK     0     129.663  94.466 146.067  0.00  0.00     0.075 A 
HETATM   15  O   UNK     0     127.261  93.304 146.062  0.00  0.00    -0.336 OA
HETATM   16  C   UNK     0     131.001  91.701 145.858  0.00  0.00     0.065 A 
HETATM   17  O   UNK     0     131.867  92.973 145.912  0.00  0.00    -0.317 OA
HETATM   18  C   UNK     0     129.466  91.811 145.908  0.00  0.00    -0.008 A 
HETATM   19  C   UNK     0     131.198  94.357 146.017  0.00  0.00     0.072 A 
HETATM   20  C   UNK     0     128.601  90.538 145.854  0.00  0.00     0.030 C 
HETATM   21  O   UNK     0     126.984 100.000 146.484  0.00  0.00    -0.365 OA
HETATM   22  C   UNK     0     125.449 100.109 146.534  0.00  0.00     0.149 A 
HETATM   23  C   UNK     0     127.849 101.271 146.539  0.00  0.00     0.151 A 
HETATM   24  C   UNK     0     127.180 102.654 146.643  0.00  0.00     0.021 A 
HETATM   25  C   UNK     0     124.779 101.492 146.639  0.00  0.00     0.030 A 
HETATM   26  C   UNK     0     125.645 102.764 146.693  0.00  0.00     0.004 A 
HETATM   27  C   UNK     0     129.385 101.160 146.489  0.00  0.00     0.071 C 
HETATM   28  C   UNK     0     130.251 102.434 146.543  0.00  0.00     0.066 C 
HETATM   29  C   UNK     0     132.456 100.940 146.389  0.00  0.00     0.028 C 
HETATM   30  C   UNK     0     131.787 102.323 146.493  0.00  0.00    -0.025 C 
HETATM   31  C   UNK     0     132.652 103.596 146.547  0.00  0.00     0.028 C 
HETATM   32  C   UNK     0     123.245 101.602 146.689  0.00  0.00     0.003 C 
HETATM   33  C   UNK     0     132.064  95.629 146.071  0.00  0.00    -0.021 C 
HETATM   34  C   UNK     0     131.395  97.012 146.175  0.00  0.00     0.028 C 
HETATM   35  C   UNK     0     133.599  95.519 146.021  0.00  0.00     0.048 C 
HETATM   36  C   UNK     0     134.465  96.791 146.075  0.00  0.00    -0.012 C 
HETATM   37  C   UNK     0     133.795  98.174 146.180  0.00  0.00     0.029 C 
HETATM   38  C   UNK     0     136.000  96.681 146.025  0.00  0.00     0.148 C 
HETATM   39  C   UNK     0     136.866  97.953 146.080  0.00  0.00     0.144 A 
HETATM   40  O   UNK     0     136.196  99.336 146.184  0.00  0.00    -0.322 OA
HETATM   41  O   UNK     0     136.670  95.297 145.921  0.00  0.00    -0.189 OA
HETATM   42  C   UNK     0     138.401  97.842 146.030  0.00  0.00     0.151 A 
HETATM   43  C   UNK     0     134.199 103.522 146.499  0.00  0.00     0.030 C 
HETATM   44  C   UNK     0     135.204 105.000 146.563  0.00  0.00    -0.026 C 
HETATM   45  C   UNK     0     139.267  99.115 146.084  0.00  0.00     0.004 A 
HETATM   46  C   UNK     0     138.545 100.499 146.190  0.00  0.00     0.002 A 
HETATM   47  C   UNK     0     137.062 100.609 146.239  0.00  0.00     0.175 A 
HETATM   48  O   UNK     0     139.070  96.460 145.925  0.00  0.00    -0.188 OA
HETATM   49  C   UNK     0     136.611 104.881 146.516  0.00  0.00    -0.005 C 
HETATM   50  C   UNK     0     137.194 103.369 146.406  0.00  0.00    -0.005 C 
HETATM   51  C   UNK     0     138.597 102.419 146.307  0.00  0.00    -0.024 C 
HETATM   52  C   UNK     0     140.781  98.958 146.032  0.00  0.00     0.033 C 
HETATM   53  O   UNK     0     126.043  98.782 146.435  0.00  0.00     0.000 OA
HETATM   54  C   UNK     0     139.968 103.122 146.312  0.00  0.00     0.031 C 
ENDROOT
BRANCH  16  55
HETATM   55  C   UNK     0     131.671  90.317 145.754  0.00  0.00     0.072 A 
HETATM   56  C   UNK     0     132.224  89.830 144.401  0.00  0.00     0.007 A 
HETATM   57  C   UNK     0     132.894  88.447 144.297  0.00  0.00     0.056 A 
HETATM   58  C   UNK     0     133.011  87.551 145.545  0.00  0.00     0.127 A 
HETATM   59  C   UNK     0     132.458  88.039 146.897  0.00  0.00     0.093 A 
HETATM   60  O   UNK     0     133.680  86.169 145.440  0.00  0.00    -0.193 OA
HETATM   61  C   UNK     0     131.788  89.422 147.001  0.00  0.00     0.053 A 
BRANCH  59  62
HETATM   62  O   UNK     0     132.574  87.144 148.144  0.00  0.00    -0.331 OA
HETATM   63  C   UNK     0     131.792  85.819 148.217  0.00  0.00     0.181 C 
ENDBRANCH  59  62
ENDBRANCH  16  55
BRANCH  28  64
HETATM   64  O   UNK     0     129.581 103.817 146.647  0.00  0.00    -0.333 OA
HETATM   65  C   UNK     0     129.670 104.618 147.959  0.00  0.00     0.181 C 
ENDBRANCH  28  64
TORSDOF 3
ENDMDL
