MODEL 1
REMARK VINA RESULT:      -7.2      0.000      0.000
REMARK  4 active torsions:
REMARK  status: ('A' for Active; 'I' for Inactive)
REMARK    1  A    between atoms: C_2  and  C_16 
REMARK    2  A    between atoms: C_16  and  C_17 
REMARK    3  A    between atoms: C_17  and  C_18 
REMARK    4  A    between atoms: C_18  and  C_19 
ROOT
HETATM    1  C   UNK     0     -62.325  42.543  54.446  0.00  0.00    -0.026 A 
HETATM    2  C   UNK     0     -63.154  42.839  53.178  0.00  0.00    -0.041 A 
HETATM    3  C   UNK     0     -62.916  44.153  52.392  0.00  0.00     0.076 A 
HETATM    4  C   UNK     0     -61.856  45.157  52.876  0.00  0.00     0.109 A 
HETATM    5  C   UNK     0     -61.265  43.552  54.927  0.00  0.00     0.067 A 
HETATM    6  C   UNK     0     -61.037  44.859  54.135  0.00  0.00     0.003 A 
HETATM    7  C   UNK     0     -59.376  44.277  56.667  0.00  0.00    -0.030 A 
HETATM    8  C   UNK     0     -59.148  45.583  55.875  0.00  0.00    -0.031 A 
HETATM    9  C   UNK     0     -59.988  45.864  54.605  0.00  0.00    -0.028 A 
HETATM   10  C   UNK     0     -59.769  47.163  53.808  0.00  0.00     0.026 A 
HETATM   11  C   UNK     0     -58.710  48.190  54.273  0.00  0.00     0.005 A 
HETATM   12  C   UNK     0     -57.869  47.910  55.543  0.00  0.00     0.005 A 
HETATM   13  C   UNK     0     -58.088  46.601  56.348  0.00  0.00     0.026 A 
HETATM   14  C   UNK     0     -58.492  49.489  53.475  0.00  0.00     0.000 C 
HETATM   15  O   UNK     0     -61.619  46.464  52.096  0.00  0.00    -0.195 OA
HETATM   16  C   UNK     0     -60.434  43.263  56.192  0.00  0.00    -0.022 A 
HETATM   17  C   UNK     0     -58.546  43.988  57.931  0.00  0.00     0.030 C 
HETATM   18  O   UNK     0     -61.490  42.254  55.716  0.00  0.00     0.000 OA
ENDROOT
BRANCH   2  19
HETATM   19  C   UNK     0     -64.214  41.832  52.695  0.00  0.00     0.022 C 
BRANCH  19  20
HETATM   20  C   UNK     0     -65.585  42.334  52.204  0.00  0.00     0.004 C 
BRANCH  20  21
HETATM   21  C   UNK     0     -66.674  42.718  53.223  0.00  0.00     0.000 C 
BRANCH  21  22
HETATM   22  C   UNK     0     -66.514  43.989  54.077  0.00  0.00     0.000 C 
HETATM   23  C   UNK     0     -65.727  43.934  55.400  0.00  0.00     0.000 C 
ENDBRANCH  21  22
ENDBRANCH  20  21
ENDBRANCH  19  20
ENDBRANCH   2  19
TORSDOF 4
ENDMDL
MODEL 2
REMARK VINA RESULT:      -6.8     35.299     38.470
REMARK  4 active torsions:
REMARK  status: ('A' for Active; 'I' for Inactive)
REMARK    1  A    between atoms: C_2  and  C_16 
REMARK    2  A    between atoms: C_16  and  C_17 
REMARK    3  A    between atoms: C_17  and  C_18 
REMARK    4  A    between atoms: C_18  and  C_19 
ROOT
HETATM    1  C   UNK     0     -57.689  17.529  83.270  0.00  0.00    -0.026 A 
HETATM    2  C   UNK     0     -58.914  17.888  84.138  0.00  0.00    -0.041 A 
HETATM    3  C   UNK     0     -59.290  19.374  84.363  0.00  0.00     0.076 A 
HETATM    4  C   UNK     0     -58.443  20.487  83.721  0.00  0.00     0.109 A 
HETATM    5  C   UNK     0     -56.845  18.647  82.630  0.00  0.00     0.067 A 
HETATM    6  C   UNK     0     -57.230  20.125  82.861  0.00  0.00     0.003 A 
HETATM    7  C   UNK     0     -54.781  19.420  81.124  0.00  0.00    -0.030 A 
HETATM    8  C   UNK     0     -55.165  20.897  81.356  0.00  0.00    -0.031 A 
HETATM    9  C   UNK     0     -56.397  21.239  82.229  0.00  0.00    -0.028 A 
HETATM   10  C   UNK     0     -56.789  22.709  82.467  0.00  0.00     0.026 A 
HETATM   11  C   UNK     0     -55.955  23.847  81.833  0.00  0.00     0.005 A 
HETATM   12  C   UNK     0     -54.723  23.507  80.959  0.00  0.00     0.005 A 
HETATM   13  C   UNK     0     -54.326  22.025  80.719  0.00  0.00     0.026 A 
HETATM   14  C   UNK     0     -56.349  25.317  82.071  0.00  0.00     0.000 C 
HETATM   15  O   UNK     0     -58.816  21.964  83.944  0.00  0.00    -0.195 OA
HETATM   16  C   UNK     0     -55.620  18.297  81.761  0.00  0.00    -0.022 A 
HETATM   17  C   UNK     0     -53.558  19.069  80.257  0.00  0.00     0.030 C 
HETATM   18  O   UNK     0     -56.460  17.179  82.398  0.00  0.00     0.000 OA
ENDROOT
BRANCH   2  19
HETATM   19  C   UNK     0     -59.760  16.772  84.779  0.00  0.00     0.022 C 
BRANCH  19  20
HETATM   20  C   UNK     0     -60.264  15.598  83.919  0.00  0.00     0.004 C 
BRANCH  20  21
HETATM   21  C   UNK     0     -59.808  14.161  84.234  0.00  0.00     0.000 C 
BRANCH  21  22
HETATM   22  C   UNK     0     -58.310  13.850  84.406  0.00  0.00     0.000 C 
HETATM   23  C   UNK     0     -57.396  13.755  83.170  0.00  0.00     0.000 C 
ENDBRANCH  21  22
ENDBRANCH  20  21
ENDBRANCH  19  20
ENDBRANCH   2  19
TORSDOF 4
ENDMDL
MODEL 3
REMARK VINA RESULT:      -6.6      1.648      2.057
REMARK  4 active torsions:
REMARK  status: ('A' for Active; 'I' for Inactive)
REMARK    1  A    between atoms: C_2  and  C_16 
REMARK    2  A    between atoms: C_16  and  C_17 
REMARK    3  A    between atoms: C_17  and  C_18 
REMARK    4  A    between atoms: C_18  and  C_19 
ROOT
HETATM    1  C   UNK     0     -62.995  42.347  54.497  0.00  0.00    -0.026 A 
HETATM    2  C   UNK     0     -64.321  43.060  54.157  0.00  0.00    -0.041 A 
HETATM    3  C   UNK     0     -64.332  44.591  53.920  0.00  0.00     0.076 A 
HETATM    4  C   UNK     0     -63.025  45.395  54.025  0.00  0.00     0.109 A 
HETATM    5  C   UNK     0     -61.689  43.156  54.601  0.00  0.00     0.067 A 
HETATM    6  C   UNK     0     -61.713  44.683  54.363  0.00  0.00     0.003 A 
HETATM    7  C   UNK     0     -59.059  43.268  55.043  0.00  0.00    -0.030 A 
HETATM    8  C   UNK     0     -59.083  44.793  54.805  0.00  0.00    -0.031 A 
HETATM    9  C   UNK     0     -60.422  45.493  54.464  0.00  0.00    -0.028 A 
HETATM   10  C   UNK     0     -60.458  47.013  54.225  0.00  0.00     0.026 A 
HETATM   11  C   UNK     0     -59.158  47.846  54.324  0.00  0.00     0.005 A 
HETATM   12  C   UNK     0     -57.819  47.147  54.665  0.00  0.00     0.005 A 
HETATM   13  C   UNK     0     -57.780  45.615  54.907  0.00  0.00     0.026 A 
HETATM   14  C   UNK     0     -59.195  49.367  54.085  0.00  0.00     0.000 C 
HETATM   15  O   UNK     0     -63.036  46.917  53.790  0.00  0.00    -0.195 OA
HETATM   16  C   UNK     0     -60.361  42.451  54.941  0.00  0.00    -0.022 A 
HETATM   17  C   UNK     0     -57.733  42.563  55.382  0.00  0.00     0.030 C 
HETATM   18  O   UNK     0     -61.661  41.640  54.838  0.00  0.00     0.000 OA
ENDROOT
BRANCH   2  19
HETATM   19  C   UNK     0     -65.628  42.252  54.052  0.00  0.00     0.022 C 
BRANCH  19  20
HETATM   20  C   UNK     0     -66.446  42.278  52.748  0.00  0.00     0.004 C 
BRANCH  20  21
HETATM   21  C   UNK     0     -67.693  43.175  52.639  0.00  0.00     0.000 C 
BRANCH  21  22
HETATM   22  C   UNK     0     -68.841  42.786  51.691  0.00  0.00     0.000 C 
HETATM   23  C   UNK     0     -68.646  42.880  50.166  0.00  0.00     0.000 C 
ENDBRANCH  21  22
ENDBRANCH  20  21
ENDBRANCH  19  20
ENDBRANCH   2  19
TORSDOF 4
ENDMDL
MODEL 4
REMARK VINA RESULT:      -5.9     43.400     47.410
REMARK  4 active torsions:
REMARK  status: ('A' for Active; 'I' for Inactive)
REMARK    1  A    between atoms: C_2  and  C_16 
REMARK    2  A    between atoms: C_16  and  C_17 
REMARK    3  A    between atoms: C_17  and  C_18 
REMARK    4  A    between atoms: C_18  and  C_19 
ROOT
HETATM    1  C   UNK     0     -25.823  22.143  75.148  0.00  0.00    -0.026 A 
HETATM    2  C   UNK     0     -26.210  22.871  73.843  0.00  0.00    -0.041 A 
HETATM    3  C   UNK     0     -26.652  22.049  72.605  0.00  0.00     0.076 A 
HETATM    4  C   UNK     0     -26.704  20.514  72.681  0.00  0.00     0.109 A 
HETATM    5  C   UNK     0     -25.877  20.605  75.219  0.00  0.00     0.067 A 
HETATM    6  C   UNK     0     -26.320  19.798  73.978  0.00  0.00     0.003 A 
HETATM    7  C   UNK     0     -25.549  18.334  76.581  0.00  0.00    -0.030 A 
HETATM    8  C   UNK     0     -25.991  17.526  75.341  0.00  0.00    -0.031 A 
HETATM    9  C   UNK     0     -26.376  18.272  74.040  0.00  0.00    -0.028 A 
HETATM   10  C   UNK     0     -26.818  17.477  72.798  0.00  0.00     0.026 A 
HETATM   11  C   UNK     0     -26.879  15.932  72.846  0.00  0.00     0.005 A 
HETATM   12  C   UNK     0     -26.495  15.185  74.147  0.00  0.00     0.005 A 
HETATM   13  C   UNK     0     -26.049  15.985  75.400  0.00  0.00     0.026 A 
HETATM   14  C   UNK     0     -27.322  15.138  71.603  0.00  0.00     0.000 C 
HETATM   15  O   UNK     0     -27.143  19.697  71.452  0.00  0.00    -0.195 OA
HETATM   16  C   UNK     0     -25.493  19.872  76.518  0.00  0.00    -0.022 A 
HETATM   17  C   UNK     0     -25.165  17.602  77.880  0.00  0.00     0.030 C 
HETATM   18  O   UNK     0     -25.438  21.406  76.453  0.00  0.00     0.000 OA
ENDROOT
BRANCH   2  19
HETATM   19  C   UNK     0     -26.157  24.408  73.771  0.00  0.00     0.022 C 
BRANCH  19  20
HETATM   20  C   UNK     0     -27.163  25.252  74.575  0.00  0.00     0.004 C 
BRANCH  20  21
HETATM   21  C   UNK     0     -27.699  26.573  73.993  0.00  0.00     0.000 C 
BRANCH  21  22
HETATM   22  C   UNK     0     -28.316  27.631  74.925  0.00  0.00     0.000 C 
HETATM   23  C   UNK     0     -27.410  28.658  75.630  0.00  0.00     0.000 C 
ENDBRANCH  21  22
ENDBRANCH  20  21
ENDBRANCH  19  20
ENDBRANCH   2  19
TORSDOF 4
ENDMDL
MODEL 5
REMARK VINA RESULT:      -5.7     43.238     47.088
REMARK  4 active torsions:
REMARK  status: ('A' for Active; 'I' for Inactive)
REMARK    1  A    between atoms: C_2  and  C_16 
REMARK    2  A    between atoms: C_16  and  C_17 
REMARK    3  A    between atoms: C_17  and  C_18 
REMARK    4  A    between atoms: C_18  and  C_19 
ROOT
HETATM    1  C   UNK     0     -27.009  22.128  72.137  0.00  0.00    -0.026 A 
HETATM    2  C   UNK     0     -26.668  23.353  73.011  0.00  0.00    -0.041 A 
HETATM    3  C   UNK     0     -26.109  23.146  74.442  0.00  0.00     0.076 A 
HETATM    4  C   UNK     0     -25.895  21.723  74.985  0.00  0.00     0.109 A 
HETATM    5  C   UNK     0     -26.793  20.705  72.685  0.00  0.00     0.067 A 
HETATM    6  C   UNK     0     -26.234  20.511  74.113  0.00  0.00     0.003 A 
HETATM    7  C   UNK     0     -26.912  18.057  72.373  0.00  0.00    -0.030 A 
HETATM    8  C   UNK     0     -26.354  17.864  73.799  0.00  0.00    -0.031 A 
HETATM    9  C   UNK     0     -26.017  19.103  74.664  0.00  0.00    -0.028 A 
HETATM   10  C   UNK     0     -25.461  18.922  76.087  0.00  0.00     0.026 A 
HETATM   11  C   UNK     0     -25.236  17.502  76.659  0.00  0.00     0.005 A 
HETATM   12  C   UNK     0     -25.572  16.261  75.795  0.00  0.00     0.005 A 
HETATM   13  C   UNK     0     -26.133  16.442  74.359  0.00  0.00     0.026 A 
HETATM   14  C   UNK     0     -24.678  17.322  78.083  0.00  0.00     0.000 C 
HETATM   15  O   UNK     0     -25.339  21.516  76.406  0.00  0.00    -0.195 OA
HETATM   16  C   UNK     0     -27.131  19.477  71.817  0.00  0.00    -0.022 A 
HETATM   17  C   UNK     0     -27.250  16.831  71.505  0.00  0.00     0.030 C 
HETATM   18  O   UNK     0     -27.348  20.894  71.266  0.00  0.00     0.000 OA
ENDROOT
BRANCH   2  19
HETATM   19  C   UNK     0     -26.883  24.777  72.465  0.00  0.00     0.022 C 
BRANCH  19  20
HETATM   20  C   UNK     0     -26.141  25.966  73.103  0.00  0.00     0.004 C 
BRANCH  20  21
HETATM   21  C   UNK     0     -26.902  27.267  73.419  0.00  0.00     0.000 C 
BRANCH  21  22
HETATM   22  C   UNK     0     -27.885  27.316  74.602  0.00  0.00     0.000 C 
HETATM   23  C   UNK     0     -27.950  26.144  75.598  0.00  0.00     0.000 C 
ENDBRANCH  21  22
ENDBRANCH  20  21
ENDBRANCH  19  20
ENDBRANCH   2  19
TORSDOF 4
ENDMDL
MODEL 6
REMARK VINA RESULT:      -5.7     44.863     47.986
REMARK  4 active torsions:
REMARK  status: ('A' for Active; 'I' for Inactive)
REMARK    1  A    between atoms: C_2  and  C_16 
REMARK    2  A    between atoms: C_16  and  C_17 
REMARK    3  A    between atoms: C_17  and  C_18 
REMARK    4  A    between atoms: C_18  and  C_19 
ROOT
HETATM    1  C   UNK     0     -25.853  22.133  75.222  0.00  0.00    -0.026 A 
HETATM    2  C   UNK     0     -26.271  22.869  73.931  0.00  0.00    -0.041 A 
HETATM    3  C   UNK     0     -26.716  22.054  72.690  0.00  0.00     0.076 A 
HETATM    4  C   UNK     0     -26.739  20.517  72.747  0.00  0.00     0.109 A 
HETATM    5  C   UNK     0     -25.878  20.594  75.274  0.00  0.00     0.067 A 
HETATM    6  C   UNK     0     -26.323  19.793  74.030  0.00  0.00     0.003 A 
HETATM    7  C   UNK     0     -25.490  18.312  76.604  0.00  0.00    -0.030 A 
HETATM    8  C   UNK     0     -25.934  17.512  75.360  0.00  0.00    -0.031 A 
HETATM    9  C   UNK     0     -26.351  18.266  74.074  0.00  0.00    -0.028 A 
HETATM   10  C   UNK     0     -26.796  17.478  72.829  0.00  0.00     0.026 A 
HETATM   11  C   UNK     0     -26.829  15.932  72.858  0.00  0.00     0.005 A 
HETATM   12  C   UNK     0     -26.412  15.176  74.145  0.00  0.00     0.005 A 
HETATM   13  C   UNK     0     -25.963  15.969  75.401  0.00  0.00     0.026 A 
HETATM   14  C   UNK     0     -27.274  15.144  71.612  0.00  0.00     0.000 C 
HETATM   15  O   UNK     0     -27.180  19.707  71.514  0.00  0.00    -0.195 OA
HETATM   16  C   UNK     0     -25.462  19.851  76.559  0.00  0.00    -0.022 A 
HETATM   17  C   UNK     0     -25.074  17.572  77.888  0.00  0.00     0.030 C 
HETATM   18  O   UNK     0     -25.435  21.387  76.512  0.00  0.00     0.000 OA
ENDROOT
BRANCH   2  19
HETATM   19  C   UNK     0     -26.247  24.408  73.877  0.00  0.00     0.022 C 
BRANCH  19  20
HETATM   20  C   UNK     0     -25.795  25.125  72.591  0.00  0.00     0.004 C 
BRANCH  20  21
HETATM   21  C   UNK     0     -24.373  24.898  72.043  0.00  0.00     0.000 C 
BRANCH  21  22
HETATM   22  C   UNK     0     -23.172  24.871  73.005  0.00  0.00     0.000 C 
HETATM   23  C   UNK     0     -22.582  23.523  73.463  0.00  0.00     0.000 C 
ENDBRANCH  21  22
ENDBRANCH  20  21
ENDBRANCH  19  20
ENDBRANCH   2  19
TORSDOF 4
ENDMDL
MODEL 7
REMARK VINA RESULT:      -5.6     45.927     49.530
REMARK  4 active torsions:
REMARK  status: ('A' for Active; 'I' for Inactive)
REMARK    1  A    between atoms: C_2  and  C_16 
REMARK    2  A    between atoms: C_16  and  C_17 
REMARK    3  A    between atoms: C_17  and  C_18 
REMARK    4  A    between atoms: C_18  and  C_19 
ROOT
HETATM    1  C   UNK     0     -31.403   8.391  73.559  0.00  0.00    -0.026 A 
HETATM    2  C   UNK     0     -30.340   9.377  74.089  0.00  0.00    -0.041 A 
HETATM    3  C   UNK     0     -30.116  10.730  73.367  0.00  0.00     0.076 A 
HETATM    4  C   UNK     0     -30.952  11.086  72.126  0.00  0.00     0.109 A 
HETATM    5  C   UNK     0     -32.237   8.753  72.315  0.00  0.00     0.067 A 
HETATM    6  C   UNK     0     -32.005  10.105  71.604  0.00  0.00     0.003 A 
HETATM    7  C   UNK     0     -34.131   8.143  70.536  0.00  0.00    -0.030 A 
HETATM    8  C   UNK     0     -33.898   9.493  69.825  0.00  0.00    -0.031 A 
HETATM    9  C   UNK     0     -32.828  10.471  70.370  0.00  0.00    -0.028 A 
HETATM   10  C   UNK     0     -32.588  11.820  69.670  0.00  0.00     0.026 A 
HETATM   11  C   UNK     0     -33.414  12.204  68.419  0.00  0.00     0.005 A 
HETATM   12  C   UNK     0     -34.485  11.227  67.873  0.00  0.00     0.005 A 
HETATM   13  C   UNK     0     -34.728   9.866  68.578  0.00  0.00     0.026 A 
HETATM   14  C   UNK     0     -33.173  13.554  67.719  0.00  0.00     0.000 C 
HETATM   15  O   UNK     0     -30.730  12.430  71.408  0.00  0.00    -0.195 OA
HETATM   16  C   UNK     0     -33.300   7.774  71.780  0.00  0.00    -0.022 A 
HETATM   17  C   UNK     0     -35.192   7.164  70.001  0.00  0.00     0.030 C 
HETATM   18  O   UNK     0     -32.471   7.409  73.020  0.00  0.00     0.000 OA
ENDROOT
BRANCH   2  19
HETATM   19  C   UNK     0     -29.505   9.017  75.332  0.00  0.00     0.022 C 
BRANCH  19  20
HETATM   20  C   UNK     0     -28.258   8.125  75.189  0.00  0.00     0.004 C 
BRANCH  20  21
HETATM   21  C   UNK     0     -26.915   8.744  74.757  0.00  0.00     0.000 C 
BRANCH  21  22
HETATM   22  C   UNK     0     -26.559  10.181  75.179  0.00  0.00     0.000 C 
HETATM   23  C   UNK     0     -26.350  11.268  74.108  0.00  0.00     0.000 C 
ENDBRANCH  21  22
ENDBRANCH  20  21
ENDBRANCH  19  20
ENDBRANCH   2  19
TORSDOF 4
ENDMDL
MODEL 8
REMARK VINA RESULT:      -5.5     34.813     36.833
REMARK  4 active torsions:
REMARK  status: ('A' for Active; 'I' for Inactive)
REMARK    1  A    between atoms: C_2  and  C_16 
REMARK    2  A    between atoms: C_16  and  C_17 
REMARK    3  A    between atoms: C_17  and  C_18 
REMARK    4  A    between atoms: C_18  and  C_19 
ROOT
HETATM    1  C   UNK     0     -55.334  18.107  80.200  0.00  0.00    -0.026 A 
HETATM    2  C   UNK     0     -54.285  18.687  79.228  0.00  0.00    -0.041 A 
HETATM    3  C   UNK     0     -53.970  20.205  79.252  0.00  0.00     0.076 A 
HETATM    4  C   UNK     0     -54.702  21.126  80.243  0.00  0.00     0.109 A 
HETATM    5  C   UNK     0     -56.063  19.033  81.191  0.00  0.00     0.067 A 
HETATM    6  C   UNK     0     -55.741  20.544  81.205  0.00  0.00     0.003 A 
HETATM    7  C   UNK     0     -57.837  19.394  83.152  0.00  0.00    -0.030 A 
HETATM    8  C   UNK     0     -57.514  20.904  83.167  0.00  0.00    -0.031 A 
HETATM    9  C   UNK     0     -56.460  21.470  82.184  0.00  0.00    -0.028 A 
HETATM   10  C   UNK     0     -56.131  22.974  82.190  0.00  0.00     0.026 A 
HETATM   11  C   UNK     0     -56.852  23.923  83.176  0.00  0.00     0.005 A 
HETATM   12  C   UNK     0     -57.906  23.358  84.159  0.00  0.00     0.005 A 
HETATM   13  C   UNK     0     -58.240  21.842  84.155  0.00  0.00     0.026 A 
HETATM   14  C   UNK     0     -56.521  25.428  83.180  0.00  0.00     0.000 C 
HETATM   15  O   UNK     0     -54.390  22.634  80.267  0.00  0.00    -0.195 OA
HETATM   16  C   UNK     0     -57.111  18.461  82.165  0.00  0.00    -0.022 A 
HETATM   17  C   UNK     0     -58.883  18.821  84.125  0.00  0.00     0.030 C 
HETATM   18  O   UNK     0     -56.386  17.533  81.179  0.00  0.00     0.000 OA
ENDROOT
BRANCH   2  19
HETATM   19  C   UNK     0     -53.554  17.762  78.237  0.00  0.00     0.022 C 
BRANCH  19  20
HETATM   20  C   UNK     0     -52.284  18.255  77.519  0.00  0.00     0.004 C 
BRANCH  20  21
HETATM   21  C   UNK     0     -52.392  18.917  76.132  0.00  0.00     0.000 C 
BRANCH  21  22
HETATM   22  C   UNK     0     -51.129  19.117  75.275  0.00  0.00     0.000 C 
HETATM   23  C   UNK     0     -49.900  18.213  75.491  0.00  0.00     0.000 C 
ENDBRANCH  21  22
ENDBRANCH  20  21
ENDBRANCH  19  20
ENDBRANCH   2  19
TORSDOF 4
ENDMDL
MODEL 9
REMARK VINA RESULT:      -5.3     52.760     56.140
REMARK  4 active torsions:
REMARK  status: ('A' for Active; 'I' for Inactive)
REMARK    1  A    between atoms: C_2  and  C_16 
REMARK    2  A    between atoms: C_16  and  C_17 
REMARK    3  A    between atoms: C_17  and  C_18 
REMARK    4  A    between atoms: C_18  and  C_19 
ROOT
HETATM    1  C   UNK     0     -47.751  13.767 100.714  0.00  0.00    -0.026 A 
HETATM    2  C   UNK     0     -47.627  14.792 101.860  0.00  0.00    -0.041 A 
HETATM    3  C   UNK     0     -46.838  16.106 101.636  0.00  0.00     0.076 A 
HETATM    4  C   UNK     0     -46.180  16.385 100.274  0.00  0.00     0.109 A 
HETATM    5  C   UNK     0     -47.091  14.051  99.351  0.00  0.00     0.067 A 
HETATM    6  C   UNK     0     -46.306  15.365  99.140  0.00  0.00     0.003 A 
HETATM    7  C   UNK     0     -46.548  13.323  96.841  0.00  0.00    -0.030 A 
HETATM    8  C   UNK     0     -45.763  14.636  96.630  0.00  0.00    -0.031 A 
HETATM    9  C   UNK     0     -45.649  15.654  97.791  0.00  0.00    -0.028 A 
HETATM   10  C   UNK     0     -44.870  16.966  97.592  0.00  0.00     0.026 A 
HETATM   11  C   UNK     0     -44.199  17.272  96.232  0.00  0.00     0.005 A 
HETATM   12  C   UNK     0     -44.313  16.255  95.070  0.00  0.00     0.005 A 
HETATM   13  C   UNK     0     -45.098  14.931  95.269  0.00  0.00     0.026 A 
HETATM   14  C   UNK     0     -43.419  18.585  96.033  0.00  0.00     0.000 C 
HETATM   15  O   UNK     0     -45.395  17.691 100.050  0.00  0.00    -0.195 OA
HETATM   16  C   UNK     0     -47.210  13.031  98.201  0.00  0.00    -0.022 A 
HETATM   17  C   UNK     0     -46.667  12.304  95.693  0.00  0.00     0.030 C 
HETATM   18  O   UNK     0     -47.870  12.744  99.558  0.00  0.00     0.000 OA
ENDROOT
BRANCH   2  19
HETATM   19  C   UNK     0     -48.286  14.510 103.224  0.00  0.00     0.022 C 
BRANCH  19  20
HETATM   20  C   UNK     0     -49.820  14.551 103.360  0.00  0.00     0.004 C 
BRANCH  20  21
HETATM   21  C   UNK     0     -50.468  15.296 104.542  0.00  0.00     0.000 C 
BRANCH  21  22
HETATM   22  C   UNK     0     -51.651  14.661 105.296  0.00  0.00     0.000 C 
HETATM   23  C   UNK     0     -51.651  14.624 106.835  0.00  0.00     0.000 C 
ENDBRANCH  21  22
ENDBRANCH  20  21
ENDBRANCH  19  20
ENDBRANCH   2  19
TORSDOF 4
ENDMDL
MODEL 10
REMARK VINA RESULT:      -5.2     50.935     54.344
REMARK  4 active torsions:
REMARK  status: ('A' for Active; 'I' for Inactive)
REMARK    1  A    between atoms: C_2  and  C_16 
REMARK    2  A    between atoms: C_16  and  C_17 
REMARK    3  A    between atoms: C_17  and  C_18 
REMARK    4  A    between atoms: C_18  and  C_19 
ROOT
HETATM    1  C   UNK     0     -62.265  35.307 108.865  0.00  0.00    -0.026 A 
HETATM    2  C   UNK     0     -60.812  35.519 109.341  0.00  0.00    -0.041 A 
HETATM    3  C   UNK     0     -60.016  36.757 108.856  0.00  0.00     0.076 A 
HETATM    4  C   UNK     0     -60.675  37.770 107.903  0.00  0.00     0.109 A 
HETATM    5  C   UNK     0     -62.920  36.324 107.912  0.00  0.00     0.067 A 
HETATM    6  C   UNK     0     -62.116  37.555 107.435  0.00  0.00     0.003 A 
HETATM    7  C   UNK     0     -65.019  37.141 106.479  0.00  0.00    -0.030 A 
HETATM    8  C   UNK     0     -64.215  38.371 106.003  0.00  0.00    -0.031 A 
HETATM    9  C   UNK     0     -62.759  38.568 106.489  0.00  0.00    -0.028 A 
HETATM   10  C   UNK     0     -61.949  39.790 106.021  0.00  0.00     0.026 A 
HETATM   11  C   UNK     0     -62.587  40.824 105.064  0.00  0.00     0.005 A 
HETATM   12  C   UNK     0     -64.043  40.628 104.576  0.00  0.00     0.005 A 
HETATM   13  C   UNK     0     -64.862  39.396 105.047  0.00  0.00     0.026 A 
HETATM   14  C   UNK     0     -61.775  42.047 104.595  0.00  0.00     0.000 C 
HETATM   15  O   UNK     0     -59.884  39.000 107.421  0.00  0.00    -0.195 OA
HETATM   16  C   UNK     0     -64.371  36.120 107.433  0.00  0.00    -0.022 A 
HETATM   17  C   UNK     0     -66.468  36.936 106.001  0.00  0.00     0.030 C 
HETATM   18  O   UNK     0     -63.721  35.103 108.384  0.00  0.00     0.000 OA
ENDROOT
BRANCH   2  19
HETATM   19  C   UNK     0     -60.155  34.503 110.294  0.00  0.00     0.022 C 
BRANCH  19  20
HETATM   20  C   UNK     0     -60.555  34.474 111.781  0.00  0.00     0.004 C 
BRANCH  20  21
HETATM   21  C   UNK     0     -59.679  35.189 112.827  0.00  0.00     0.000 C 
BRANCH  21  22
HETATM   22  C   UNK     0     -59.576  36.725 112.824  0.00  0.00     0.000 C 
HETATM   23  C   UNK     0     -60.803  37.578 112.451  0.00  0.00     0.000 C 
ENDBRANCH  21  22
ENDBRANCH  20  21
ENDBRANCH  19  20
ENDBRANCH   2  19
TORSDOF 4
ENDMDL
