MODEL 1
REMARK VINA RESULT:      -7.3      0.000      0.000
REMARK  0 active torsions:
REMARK  status: ('A' for Active; 'I' for Inactive)
REMARK       I    between atoms: N_2  and  C_14 
ROOT
HETATM    1  O   UNK     0     -68.146  24.448  86.328  0.00  0.00    -0.154 OA
HETATM    2  N   UNK     0     -66.320  22.945  85.348  0.00  0.00    -0.283 N 
HETATM    3  N   UNK     0     -68.787  22.423  84.897  0.00  0.00    -0.053 NA
HETATM    4  C   UNK     0     -65.366  23.856  86.015  0.00  0.00     0.040 A 
HETATM    5  C   UNK     0     -66.033  21.748  84.526  0.00  0.00     0.040 A 
HETATM    6  C   UNK     0     -63.889  23.797  86.027  0.00  0.00    -0.010 A 
HETATM    7  C   UNK     0     -64.719  21.170  84.171  0.00  0.00    -0.010 A 
HETATM    8  C   UNK     0     -63.000  22.812  85.374  0.00  0.00    -0.003 A 
HETATM    9  C   UNK     0     -63.370  21.643  84.548  0.00  0.00    -0.003 A 
HETATM   10  C   UNK     0     -66.118  24.971  86.764  0.00  0.00     0.044 A 
HETATM   11  C   UNK     0     -67.340  21.105  84.032  0.00  0.00     0.044 A 
HETATM   12  C   UNK     0     -63.062  24.849  86.788  0.00  0.00     0.028 A 
HETATM   13  C   UNK     0     -64.625  19.906  83.295  0.00  0.00     0.028 A 
HETATM   14  C   UNK     0     -67.751  23.272  85.524  0.00  0.00     0.271 C 
HETATM   15  C   UNK     0     -65.321  26.040  87.536  0.00  0.00     0.007 A 
HETATM   16  C   UNK     0     -67.281  19.840  83.155  0.00  0.00     0.007 A 
HETATM   17  C   UNK     0     -63.782  25.978  87.547  0.00  0.00     0.005 A 
HETATM   18  C   UNK     0     -65.913  19.237  82.784  0.00  0.00     0.005 A 
ENDROOT
TORSDOF 0
ENDMDL
MODEL 2
REMARK VINA RESULT:      -7.0     37.751     38.063
REMARK  0 active torsions:
REMARK  status: ('A' for Active; 'I' for Inactive)
REMARK       I    between atoms: N_2  and  C_14 
ROOT
HETATM    1  O   UNK     0     -63.181  46.454  53.563  0.00  0.00    -0.154 OA
HETATM    2  N   UNK     0     -61.495  44.614  54.136  0.00  0.00    -0.283 N 
HETATM    3  N   UNK     0     -60.750  47.064  54.089  0.00  0.00    -0.053 NA
HETATM    4  C   UNK     0     -62.623  43.677  53.952  0.00  0.00     0.040 A 
HETATM    5  C   UNK     0     -60.093  44.311  54.499  0.00  0.00     0.040 A 
HETATM    6  C   UNK     0     -62.629  42.204  54.086  0.00  0.00    -0.010 A 
HETATM    7  C   UNK     0     -59.476  42.995  54.768  0.00  0.00    -0.010 A 
HETATM    8  C   UNK     0     -61.509  41.305  54.437  0.00  0.00    -0.003 A 
HETATM    9  C   UNK     0     -60.106  41.657  54.740  0.00  0.00    -0.003 A 
HETATM   10  C   UNK     0     -63.905  44.441  53.574  0.00  0.00     0.044 A 
HETATM   11  C   UNK     0     -59.264  45.605  54.579  0.00  0.00     0.044 A 
HETATM   12  C   UNK     0     -63.918  41.395  53.851  0.00  0.00     0.028 A 
HETATM   13  C   UNK     0     -57.984  42.883  55.136  0.00  0.00     0.028 A 
HETATM   14  C   UNK     0     -61.809  46.044  53.929  0.00  0.00     0.271 C 
HETATM   15  C   UNK     0     -65.212  43.662  53.333  0.00  0.00     0.007 A 
HETATM   16  C   UNK     0     -57.770  45.529  54.944  0.00  0.00     0.007 A 
HETATM   17  C   UNK     0     -65.218  42.128  53.473  0.00  0.00     0.005 A 
HETATM   18  C   UNK     0     -57.125  44.158  55.224  0.00  0.00     0.005 A 
ENDROOT
TORSDOF 0
ENDMDL
MODEL 3
REMARK VINA RESULT:      -7.0     37.776     37.904
REMARK  0 active torsions:
REMARK  status: ('A' for Active; 'I' for Inactive)
REMARK       I    between atoms: N_2  and  C_14 
ROOT
HETATM    1  O   UNK     0     -60.773  47.195  54.122  0.00  0.00    -0.154 OA
HETATM    2  N   UNK     0     -61.516  44.745  54.195  0.00  0.00    -0.283 N 
HETATM    3  N   UNK     0     -63.206  46.580  53.611  0.00  0.00    -0.053 NA
HETATM    4  C   UNK     0     -60.114  44.446  54.556  0.00  0.00     0.040 A 
HETATM    5  C   UNK     0     -62.646  43.806  54.024  0.00  0.00     0.040 A 
HETATM    6  C   UNK     0     -59.495  43.132  54.835  0.00  0.00    -0.010 A 
HETATM    7  C   UNK     0     -62.651  42.335  54.173  0.00  0.00    -0.010 A 
HETATM    8  C   UNK     0     -60.125  41.795  54.823  0.00  0.00    -0.003 A 
HETATM    9  C   UNK     0     -61.529  41.440  54.528  0.00  0.00    -0.003 A 
HETATM   10  C   UNK     0     -59.285  45.741  54.620  0.00  0.00     0.044 A 
HETATM   11  C   UNK     0     -63.929  44.567  53.645  0.00  0.00     0.044 A 
HETATM   12  C   UNK     0     -58.003  43.024  55.198  0.00  0.00     0.028 A 
HETATM   13  C   UNK     0     -63.941  41.524  53.951  0.00  0.00     0.028 A 
HETATM   14  C   UNK     0     -61.831  46.174  53.976  0.00  0.00     0.271 C 
HETATM   15  C   UNK     0     -57.788  45.668  54.980  0.00  0.00     0.007 A 
HETATM   16  C   UNK     0     -65.236  43.786  53.416  0.00  0.00     0.007 A 
HETATM   17  C   UNK     0     -57.144  44.300  55.271  0.00  0.00     0.005 A 
HETATM   18  C   UNK     0     -65.243  42.253  53.570  0.00  0.00     0.005 A 
ENDROOT
TORSDOF 0
ENDMDL
MODEL 4
REMARK VINA RESULT:      -6.6     37.980     38.088
REMARK  0 active torsions:
REMARK  status: ('A' for Active; 'I' for Inactive)
REMARK       I    between atoms: N_2  and  C_14 
ROOT
HETATM    1  O   UNK     0     -61.884  46.699  53.336  0.00  0.00    -0.154 OA
HETATM    2  N   UNK     0     -61.080  44.289  53.660  0.00  0.00    -0.283 N 
HETATM    3  N   UNK     0     -63.231  44.757  52.350  0.00  0.00    -0.053 NA
HETATM    4  C   UNK     0     -59.953  44.884  54.409  0.00  0.00     0.040 A 
HETATM    5  C   UNK     0     -61.354  42.863  53.383  0.00  0.00     0.040 A 
HETATM    6  C   UNK     0     -58.819  44.198  55.067  0.00  0.00    -0.010 A 
HETATM    7  C   UNK     0     -60.567  41.678  53.788  0.00  0.00    -0.010 A 
HETATM    8  C   UNK     0     -58.534  42.748  55.137  0.00  0.00    -0.003 A 
HETATM    9  C   UNK     0     -59.312  41.627  54.568  0.00  0.00    -0.003 A 
HETATM   10  C   UNK     0     -60.076  46.417  54.445  0.00  0.00     0.044 A 
HETATM   11  C   UNK     0     -62.648  42.710  52.563  0.00  0.00     0.044 A 
HETATM   12  C   UNK     0     -57.732  44.999  55.806  0.00  0.00     0.028 A 
HETATM   13  C   UNK     0     -61.020  40.258  53.399  0.00  0.00     0.028 A 
HETATM   14  C   UNK     0     -62.065  45.249  53.115  0.00  0.00     0.271 C 
HETATM   15  C   UNK     0     -59.006  47.250  55.176  0.00  0.00     0.007 A 
HETATM   16  C   UNK     0     -63.129  41.304  52.158  0.00  0.00     0.007 A 
HETATM   17  C   UNK     0     -57.826  46.535  55.861  0.00  0.00     0.005 A 
HETATM   18  C   UNK     0     -62.309  40.070  52.579  0.00  0.00     0.005 A 
ENDROOT
TORSDOF 0
ENDMDL
MODEL 5
REMARK VINA RESULT:      -6.0     23.054     24.804
REMARK  0 active torsions:
REMARK  status: ('A' for Active; 'I' for Inactive)
REMARK       I    between atoms: N_2  and  C_14 
ROOT
HETATM    1  O   UNK     0     -49.026  22.738  70.060  0.00  0.00    -0.154 OA
HETATM    2  N   UNK     0     -47.536  24.816  69.915  0.00  0.00    -0.283 N 
HETATM    3  N   UNK     0     -47.450  23.321  71.993  0.00  0.00    -0.053 NA
HETATM    4  C   UNK     0     -48.153  25.029  68.588  0.00  0.00     0.040 A 
HETATM    5  C   UNK     0     -46.513  25.635  70.600  0.00  0.00     0.040 A 
HETATM    6  C   UNK     0     -47.898  26.115  67.617  0.00  0.00    -0.010 A 
HETATM    7  C   UNK     0     -45.854  26.871  70.124  0.00  0.00    -0.010 A 
HETATM    8  C   UNK     0     -46.965  27.256  67.734  0.00  0.00    -0.003 A 
HETATM    9  C   UNK     0     -46.055  27.592  68.849  0.00  0.00    -0.003 A 
HETATM   10  C   UNK     0     -49.174  23.919  68.282  0.00  0.00     0.044 A 
HETATM   11  C   UNK     0     -46.165  25.031  71.972  0.00  0.00     0.044 A 
HETATM   12  C   UNK     0     -48.648  26.165  66.274  0.00  0.00     0.028 A 
HETATM   13  C   UNK     0     -44.801  27.588  70.991  0.00  0.00     0.028 A 
HETATM   14  C   UNK     0     -48.005  23.625  70.656  0.00  0.00     0.271 C 
HETATM   15  C   UNK     0     -49.942  23.939  66.947  0.00  0.00     0.007 A 
HETATM   16  C   UNK     0     -45.117  25.723  72.864  0.00  0.00     0.007 A 
HETATM   17  C   UNK     0     -49.677  25.071  65.936  0.00  0.00     0.005 A 
HETATM   18  C   UNK     0     -44.430  27.010  72.370  0.00  0.00     0.005 A 
ENDROOT
TORSDOF 0
ENDMDL
MODEL 6
REMARK VINA RESULT:      -5.6     42.556     44.291
REMARK  0 active torsions:
REMARK  status: ('A' for Active; 'I' for Inactive)
REMARK       I    between atoms: N_2  and  C_14 
ROOT
HETATM    1  O   UNK     0     -26.243  30.701  64.700  0.00  0.00    -0.154 OA
HETATM    2  N   UNK     0     -26.808  32.176  66.716  0.00  0.00    -0.283 N 
HETATM    3  N   UNK     0     -28.592  30.633  65.718  0.00  0.00    -0.053 NA
HETATM    4  C   UNK     0     -25.410  32.647  66.622  0.00  0.00     0.040 A 
HETATM    5  C   UNK     0     -27.854  32.576  67.682  0.00  0.00     0.040 A 
HETATM    6  C   UNK     0     -24.712  33.637  67.471  0.00  0.00    -0.010 A 
HETATM    7  C   UNK     0     -27.759  33.548  68.792  0.00  0.00    -0.010 A 
HETATM    8  C   UNK     0     -25.240  34.398  68.623  0.00  0.00    -0.003 A 
HETATM    9  C   UNK     0     -26.595  34.359  69.211  0.00  0.00    -0.003 A 
HETATM   10  C   UNK     0     -24.682  31.953  65.457  0.00  0.00     0.044 A 
HETATM   11  C   UNK     0     -29.166  31.822  67.401  0.00  0.00     0.044 A 
HETATM   12  C   UNK     0     -23.238  34.000  67.212  0.00  0.00     0.028 A 
HETATM   13  C   UNK     0     -28.971  33.833  69.698  0.00  0.00     0.028 A 
HETATM   14  C   UNK     0     -27.214  31.170  65.711  0.00  0.00     0.271 C 
HETATM   15  C   UNK     0     -23.207  32.293  65.170  0.00  0.00     0.007 A 
HETATM   16  C   UNK     0     -30.398  32.084  68.288  0.00  0.00     0.007 A 
HETATM   17  C   UNK     0     -22.481  33.324  66.055  0.00  0.00     0.005 A 
HETATM   18  C   UNK     0     -30.299  33.096  69.445  0.00  0.00     0.005 A 
ENDROOT
TORSDOF 0
ENDMDL
MODEL 7
REMARK VINA RESULT:      -5.5     12.827     12.975
REMARK  0 active torsions:
REMARK  status: ('A' for Active; 'I' for Inactive)
REMARK       I    between atoms: N_2  and  C_14 
ROOT
HETATM    1  O   UNK     0     -76.590  29.127  83.869  0.00  0.00    -0.154 OA
HETATM    2  N   UNK     0     -75.799  29.470  81.458  0.00  0.00    -0.283 N 
HETATM    3  N   UNK     0     -77.286  27.468  82.046  0.00  0.00    -0.053 NA
HETATM    4  C   UNK     0     -75.108  30.671  81.973  0.00  0.00     0.040 A 
HETATM    5  C   UNK     0     -75.832  28.945  80.076  0.00  0.00     0.040 A 
HETATM    6  C   UNK     0     -74.278  31.645  81.232  0.00  0.00    -0.010 A 
HETATM    7  C   UNK     0     -75.180  29.494  78.867  0.00  0.00    -0.010 A 
HETATM    8  C   UNK     0     -73.935  31.659  79.794  0.00  0.00    -0.003 A 
HETATM    9  C   UNK     0     -74.337  30.702  78.741  0.00  0.00    -0.003 A 
HETATM   10  C   UNK     0     -75.352  30.829  83.484  0.00  0.00     0.044 A 
HETATM   11  C   UNK     0     -76.680  27.663  80.003  0.00  0.00     0.044 A 
HETATM   12  C   UNK     0     -73.636  32.845  81.952  0.00  0.00     0.028 A 
HETATM   13  C   UNK     0     -75.334  28.797  77.502  0.00  0.00     0.028 A 
HETATM   14  C   UNK     0     -76.558  28.688  82.458  0.00  0.00     0.271 C 
HETATM   15  C   UNK     0     -74.724  32.018  84.236  0.00  0.00     0.007 A 
HETATM   16  C   UNK     0     -76.854  26.941  78.654  0.00  0.00     0.007 A 
HETATM   17  C   UNK     0     -73.860  33.033  83.464  0.00  0.00     0.005 A 
HETATM   18  C   UNK     0     -76.176  27.512  77.394  0.00  0.00     0.005 A 
ENDROOT
TORSDOF 0
ENDMDL
MODEL 8
REMARK VINA RESULT:      -5.5     27.703     29.277
REMARK  0 active torsions:
REMARK  status: ('A' for Active; 'I' for Inactive)
REMARK       I    between atoms: N_2  and  C_14 
ROOT
HETATM    1  O   UNK     0     -62.321  52.634  77.088  0.00  0.00    -0.154 OA
HETATM    2  N   UNK     0     -64.090  51.195  78.254  0.00  0.00    -0.283 N 
HETATM    3  N   UNK     0     -62.680  52.845  79.615  0.00  0.00    -0.053 NA
HETATM    4  C   UNK     0     -64.362  50.639  76.912  0.00  0.00     0.040 A 
HETATM    5  C   UNK     0     -64.736  50.859  79.542  0.00  0.00     0.040 A 
HETATM    6  C   UNK     0     -65.349  49.608  76.525  0.00  0.00    -0.010 A 
HETATM    7  C   UNK     0     -65.815  49.882  79.803  0.00  0.00    -0.010 A 
HETATM    8  C   UNK     0     -66.307  48.879  77.384  0.00  0.00    -0.003 A 
HETATM    9  C   UNK     0     -66.514  49.001  78.843  0.00  0.00    -0.003 A 
HETATM   10  C   UNK     0     -63.444  51.288  75.861  0.00  0.00     0.044 A 
HETATM   11  C   UNK     0     -64.129  51.692  80.685  0.00  0.00     0.044 A 
HETATM   12  C   UNK     0     -65.485  49.156  75.060  0.00  0.00     0.028 A 
HETATM   13  C   UNK     0     -66.361  49.672  81.227  0.00  0.00     0.028 A 
HETATM   14  C   UNK     0     -63.030  52.225  78.319  0.00  0.00     0.271 C 
HETATM   15  C   UNK     0     -63.554  50.858  74.386  0.00  0.00     0.007 A 
HETATM   16  C   UNK     0     -64.652  51.506  82.121  0.00  0.00     0.007 A 
HETATM   17  C   UNK     0     -64.582  49.784  73.983  0.00  0.00     0.005 A 
HETATM   18  C   UNK     0     -65.777  50.488  82.394  0.00  0.00     0.005 A 
ENDROOT
TORSDOF 0
ENDMDL
MODEL 9
REMARK VINA RESULT:      -5.4     45.534     47.885
REMARK  0 active torsions:
REMARK  status: ('A' for Active; 'I' for Inactive)
REMARK       I    between atoms: N_2  and  C_14 
ROOT
HETATM    1  O   UNK     0     -40.558  61.772  75.864  0.00  0.00    -0.154 OA
HETATM    2  N   UNK     0     -38.447  61.281  77.229  0.00  0.00    -0.283 N 
HETATM    3  N   UNK     0     -38.249  61.994  74.777  0.00  0.00    -0.053 NA
HETATM    4  C   UNK     0     -39.371  60.991  78.345  0.00  0.00     0.040 A 
HETATM    5  C   UNK     0     -36.969  61.222  77.214  0.00  0.00     0.040 A 
HETATM    6  C   UNK     0     -39.046  60.571  79.726  0.00  0.00    -0.010 A 
HETATM    7  C   UNK     0     -36.052  60.859  78.316  0.00  0.00    -0.010 A 
HETATM    8  C   UNK     0     -37.716  60.337  80.329  0.00  0.00    -0.003 A 
HETATM    9  C   UNK     0     -36.384  60.465  79.701  0.00  0.00    -0.003 A 
HETATM   10  C   UNK     0     -40.832  61.183  77.902  0.00  0.00     0.044 A 
HETATM   11  C   UNK     0     -36.426  61.608  75.827  0.00  0.00     0.044 A 
HETATM   12  C   UNK     0     -40.160  60.314  80.757  0.00  0.00     0.028 A 
HETATM   13  C   UNK     0     -34.526  60.857  78.103  0.00  0.00     0.028 A 
HETATM   14  C   UNK     0     -39.085  61.682  75.956  0.00  0.00     0.271 C 
HETATM   15  C   UNK     0     -41.972  60.935  78.909  0.00  0.00     0.007 A 
HETATM   16  C   UNK     0     -34.906  61.616  75.581  0.00  0.00     0.007 A 
HETATM   17  C   UNK     0     -41.632  60.497  80.346  0.00  0.00     0.005 A 
HETATM   18  C   UNK     0     -33.949  61.238  76.728  0.00  0.00     0.005 A 
ENDROOT
TORSDOF 0
ENDMDL
MODEL 10
REMARK VINA RESULT:      -5.4     45.386     47.754
REMARK  0 active torsions:
REMARK  status: ('A' for Active; 'I' for Inactive)
REMARK       I    between atoms: N_2  and  C_14 
ROOT
HETATM    1  O   UNK     0     -38.760  62.062  74.810  0.00  0.00    -0.154 OA
HETATM    2  N   UNK     0     -38.730  61.296  77.253  0.00  0.00    -0.283 N 
HETATM    3  N   UNK     0     -40.962  61.727  76.073  0.00  0.00    -0.053 NA
HETATM    4  C   UNK     0     -37.258  61.298  77.120  0.00  0.00     0.040 A 
HETATM    5  C   UNK     0     -39.549  60.949  78.435  0.00  0.00     0.040 A 
HETATM    6  C   UNK     0     -36.240  60.952  78.136  0.00  0.00    -0.010 A 
HETATM    7  C   UNK     0     -39.097  60.518  79.775  0.00  0.00    -0.010 A 
HETATM    8  C   UNK     0     -36.443  60.520  79.535  0.00  0.00    -0.003 A 
HETATM    9  C   UNK     0     -37.714  60.327  80.264  0.00  0.00    -0.003 A 
HETATM   10  C   UNK     0     -36.844  61.730  75.702  0.00  0.00     0.044 A 
HETATM   11  C   UNK     0     -41.048  61.091  78.114  0.00  0.00     0.044 A 
HETATM   12  C   UNK     0     -34.738  61.015  77.802  0.00  0.00     0.028 A 
HETATM   13  C   UNK     0     -40.114  60.198  80.886  0.00  0.00     0.028 A 
HETATM   14  C   UNK     0     -39.484  61.695  76.045  0.00  0.00     0.271 C 
HETATM   15  C   UNK     0     -35.349  61.804  75.335  0.00  0.00     0.007 A 
HETATM   16  C   UNK     0     -42.091  60.779  79.203  0.00  0.00     0.007 A 
HETATM   17  C   UNK     0     -34.290  61.444  76.393  0.00  0.00     0.005 A 
HETATM   18  C   UNK     0     -41.621  60.329  80.599  0.00  0.00     0.005 A 
ENDROOT
TORSDOF 0
ENDMDL
