MODEL 1
REMARK VINA RESULT:      -7.0      0.000      0.000
REMARK  9 active torsions:
REMARK  status: ('A' for Active; 'I' for Inactive)
REMARK    1  A    between atoms: C_3  and  C_21 
REMARK    2  A    between atoms: C_4  and  C_14 
REMARK    3  A    between atoms: C_7  and  N_9 
REMARK       I    between atoms: N_9  and  C_10 
REMARK    4  A    between atoms: C_10  and  C_13 
REMARK    5  A    between atoms: C_13  and  C_15 
REMARK    6  A    between atoms: C_13  and  N_20 
REMARK    7  A    between atoms: C_14  and  S_24 
REMARK    8  A    between atoms: N_20  and  O_35 
REMARK    9  A    between atoms: S_24  and  C_25 
ROOT
HETATM    1  C   UNK     0     -42.176  43.407  64.197  0.00  0.00     0.308 A 
HETATM    2  N   UNK     0     -42.537  42.856  62.890  0.00  0.00    -0.297 N 
HETATM    3  C   UNK     0     -42.809  43.849  61.685  0.00  0.00     0.121 A 
HETATM    4  C   UNK     0     -42.697  45.351  61.883  0.00  0.00    -0.002 A 
HETATM    5  C   UNK     0     -42.337  45.902  63.189  0.00  0.00     0.065 A 
HETATM    6  S   UNK     0     -42.069  44.980  64.366  0.00  0.00    -0.194 SA
HETATM    7  C   UNK     0     -42.085  41.982  64.773  0.00  0.00     0.125 A 
HETATM    8  C   UNK     0     -42.445  41.431  63.466  0.00  0.00     0.211 A 
HETATM    9  O   UNK     0     -42.557  39.930  63.268  0.00  0.00    -0.170 OA
ENDROOT
BRANCH   7  10
HETATM   10  N   UNK     0     -41.817  41.060  65.949  0.00  0.00    -0.217 NA
HETATM   11  C   UNK     0     -41.944  41.609  67.360  0.00  0.00     0.234 C 
HETATM   12  O   UNK     0     -42.319  43.005  67.582  0.00  0.00    -0.167 OA
BRANCH  11  13
HETATM   13  C   UNK     0     -41.676  40.687  68.537  0.00  0.00     0.165 C 
BRANCH  13  14
HETATM   14  C   UNK     0     -42.392  40.933  69.930  0.00  0.00     0.091 A 
HETATM   15  C   UNK     0     -43.922  40.757  69.891  0.00  0.00     0.108 A 
HETATM   16  S   UNK     0     -44.425  41.034  71.319  0.00  0.00    -0.072 SA
HETATM   17  C   UNK     0     -43.189  41.394  72.282  0.00  0.00     0.456 A 
HETATM   18  N   UNK     0     -41.918  41.331  71.414  0.00  0.00    -0.229 NA
HETATM   19  N   UNK     0     -43.266  41.734  73.782  0.00  0.00     0.656 N 
ENDBRANCH  13  14
BRANCH  13  20
HETATM   20  N   UNK     0     -40.657  39.441  68.387  0.00  0.00    -0.126 NA
BRANCH  20  21
HETATM   21  O   UNK     0     -39.208  39.668  67.914  0.00  0.00    -0.234 OA
HETATM   22  C   UNK     0     -38.579  41.072  67.971  0.00  0.00     0.211 C 
ENDBRANCH  20  21
ENDBRANCH  13  20
ENDBRANCH  11  13
ENDBRANCH   7  10
BRANCH   3  23
HETATM   23  C   UNK     0     -43.189  43.270  60.309  0.00  0.00     0.227 C 
HETATM   24  O   UNK     0     -42.350  43.527  59.021  0.00  0.00    -0.643 OA
HETATM   25  O   UNK     0     -44.488  42.369  60.185  0.00  0.00    -0.643 OA
ENDBRANCH   3  23
BRANCH   4  26
HETATM   26  C   UNK     0     -42.984  46.244  60.637  0.00  0.00     0.089 C 
BRANCH  26  27
HETATM   27  S   UNK     0     -43.295  47.706  60.904  0.00  0.00    -0.071 SA
BRANCH  27  28
HETATM   28  C   UNK     0     -44.745  48.149  60.991  0.00  0.00     0.190 A 
HETATM   29  N   UNK     0     -45.633  47.688  62.161  0.00  0.00    -0.192 NA
HETATM   30  C   UNK     0     -47.084  48.131  62.247  0.00  0.00     0.260 A 
HETATM   31  C   UNK     0     -47.704  49.073  61.133  0.00  0.00     0.274 A 
HETATM   32  O   UNK     0     -47.972  47.671  63.418  0.00  0.00    -0.165 OA
HETATM   33  N   UNK     0     -46.816  49.534  59.963  0.00  0.00    -0.136 NA
HETATM   34  O   UNK     0     -49.155  49.516  61.220  0.00  0.00    -0.164 OA
HETATM   35  N   UNK     0     -45.306  49.051  59.906  0.00  0.00    -0.225 N 
HETATM   36  C   UNK     0     -44.418  49.512  58.736  0.00  0.00     0.156 C 
ENDBRANCH  27  28
ENDBRANCH  26  27
ENDBRANCH   4  26
TORSDOF 9
ENDMDL
MODEL 2
REMARK VINA RESULT:      -6.8      8.187     12.433
REMARK  9 active torsions:
REMARK  status: ('A' for Active; 'I' for Inactive)
REMARK    1  A    between atoms: C_3  and  C_21 
REMARK    2  A    between atoms: C_4  and  C_14 
REMARK    3  A    between atoms: C_7  and  N_9 
REMARK       I    between atoms: N_9  and  C_10 
REMARK    4  A    between atoms: C_10  and  C_13 
REMARK    5  A    between atoms: C_13  and  C_15 
REMARK    6  A    between atoms: C_13  and  N_20 
REMARK    7  A    between atoms: C_14  and  S_24 
REMARK    8  A    between atoms: N_20  and  O_35 
REMARK    9  A    between atoms: S_24  and  C_25 
ROOT
HETATM    1  C   UNK     0     -40.131  48.448  68.284  0.00  0.00     0.308 A 
HETATM    2  N   UNK     0     -40.806  48.236  69.565  0.00  0.00    -0.297 N 
HETATM    3  C   UNK     0     -41.720  46.954  69.750  0.00  0.00     0.121 A 
HETATM    4  C   UNK     0     -41.893  45.960  68.615  0.00  0.00    -0.002 A 
HETATM    5  C   UNK     0     -41.218  46.172  67.335  0.00  0.00     0.065 A 
HETATM    6  S   UNK     0     -40.335  47.389  67.122  0.00  0.00    -0.194 SA
HETATM    7  C   UNK     0     -39.510  49.749  68.827  0.00  0.00     0.125 A 
HETATM    8  C   UNK     0     -40.185  49.537  70.107  0.00  0.00     0.211 A 
HETATM    9  O   UNK     0     -40.013  50.531  71.243  0.00  0.00    -0.170 OA
ENDROOT
BRANCH   7  10
HETATM   10  N   UNK     0     -38.627  50.966  68.614  0.00  0.00    -0.217 NA
HETATM   11  C   UNK     0     -39.266  52.276  68.187  0.00  0.00     0.234 C 
HETATM   12  O   UNK     0     -40.712  52.364  67.983  0.00  0.00    -0.167 OA
BRANCH  11  13
HETATM   13  C   UNK     0     -38.383  53.493  67.974  0.00  0.00     0.165 C 
BRANCH  13  14
HETATM   14  C   UNK     0     -37.934  54.386  69.205  0.00  0.00     0.091 A 
HETATM   15  C   UNK     0     -37.927  55.898  68.915  0.00  0.00     0.108 A 
HETATM   16  S   UNK     0     -37.469  56.585  70.215  0.00  0.00    -0.072 SA
HETATM   17  C   UNK     0     -37.181  55.484  71.351  0.00  0.00     0.456 A 
HETATM   18  N   UNK     0     -37.471  54.110  70.720  0.00  0.00    -0.229 NA
HETATM   19  N   UNK     0     -36.707  55.758  72.790  0.00  0.00     0.656 N 
ENDBRANCH  13  14
BRANCH  13  20
HETATM   20  N   UNK     0     -37.886  53.896  66.489  0.00  0.00    -0.126 NA
BRANCH  20  21
HETATM   21  O   UNK     0     -38.885  54.452  65.455  0.00  0.00    -0.234 OA
HETATM   22  C   UNK     0     -40.134  55.228  65.914  0.00  0.00     0.211 C 
ENDBRANCH  20  21
ENDBRANCH  13  20
ENDBRANCH  11  13
ENDBRANCH   7  10
BRANCH   3  23
HETATM   23  C   UNK     0     -42.431  46.731  71.098  0.00  0.00     0.227 C 
HETATM   24  O   UNK     0     -41.764  45.986  72.294  0.00  0.00    -0.643 OA
HETATM   25  O   UNK     0     -43.907  47.279  71.291  0.00  0.00    -0.643 OA
ENDBRANCH   3  23
BRANCH   4  26
HETATM   26  C   UNK     0     -42.812  44.732  68.895  0.00  0.00     0.089 C 
BRANCH  26  27
HETATM   27  S   UNK     0     -42.127  43.468  69.384  0.00  0.00    -0.071 SA
BRANCH  27  28
HETATM   28  C   UNK     0     -42.473  42.927  70.761  0.00  0.00     0.190 A 
HETATM   29  N   UNK     0     -43.940  42.681  71.157  0.00  0.00    -0.192 NA
HETATM   30  C   UNK     0     -44.286  42.141  72.534  0.00  0.00     0.260 A 
HETATM   31  C   UNK     0     -43.141  41.821  73.583  0.00  0.00     0.274 A 
HETATM   32  O   UNK     0     -45.753  41.895  72.931  0.00  0.00    -0.165 OA
HETATM   33  N   UNK     0     -41.673  42.066  73.186  0.00  0.00    -0.136 NA
HETATM   34  O   UNK     0     -43.486  41.280  74.959  0.00  0.00    -0.164 OA
HETATM   35  N   UNK     0     -41.350  42.632  71.740  0.00  0.00    -0.225 N 
HETATM   36  C   UNK     0     -39.883  42.877  71.344  0.00  0.00     0.156 C 
ENDBRANCH  27  28
ENDBRANCH  26  27
ENDBRANCH   4  26
TORSDOF 9
ENDMDL
MODEL 3
REMARK VINA RESULT:      -6.5     33.889     38.980
REMARK  9 active torsions:
REMARK  status: ('A' for Active; 'I' for Inactive)
REMARK    1  A    between atoms: C_3  and  C_21 
REMARK    2  A    between atoms: C_4  and  C_14 
REMARK    3  A    between atoms: C_7  and  N_9 
REMARK       I    between atoms: N_9  and  C_10 
REMARK    4  A    between atoms: C_10  and  C_13 
REMARK    5  A    between atoms: C_13  and  C_15 
REMARK    6  A    between atoms: C_13  and  N_20 
REMARK    7  A    between atoms: C_14  and  S_24 
REMARK    8  A    between atoms: N_20  and  O_35 
REMARK    9  A    between atoms: S_24  and  C_25 
ROOT
HETATM    1  C   UNK     0     -64.862  43.746  96.531  0.00  0.00     0.308 A 
HETATM    2  N   UNK     0     -64.326  43.667  97.890  0.00  0.00    -0.297 N 
HETATM    3  C   UNK     0     -62.941  44.368  98.214  0.00  0.00     0.121 A 
HETATM    4  C   UNK     0     -62.182  45.112  97.129  0.00  0.00    -0.002 A 
HETATM    5  C   UNK     0     -62.718  45.190  95.770  0.00  0.00     0.065 A 
HETATM    6  S   UNK     0     -64.041  44.530  95.424  0.00  0.00    -0.194 SA
HETATM    7  C   UNK     0     -66.087  42.920  96.966  0.00  0.00     0.125 A 
HETATM    8  C   UNK     0     -65.551  42.841  98.325  0.00  0.00     0.211 A 
HETATM    9  O   UNK     0     -66.310  42.098  99.410  0.00  0.00    -0.170 OA
ENDROOT
BRANCH   7  10
HETATM   10  N   UNK     0     -67.410  42.260  96.621  0.00  0.00    -0.217 NA
HETATM   11  C   UNK     0     -67.416  41.067  95.680  0.00  0.00     0.234 C 
HETATM   12  O   UNK     0     -66.165  40.562  95.115  0.00  0.00    -0.167 OA
BRANCH  11  13
HETATM   13  C   UNK     0     -68.739  40.407  95.335  0.00  0.00     0.165 C 
BRANCH  13  14
HETATM   14  C   UNK     0     -68.772  38.951  94.707  0.00  0.00     0.091 A 
HETATM   15  C   UNK     0     -67.744  38.729  93.583  0.00  0.00     0.108 A 
HETATM   16  S   UNK     0     -67.930  37.275  93.109  0.00  0.00    -0.072 SA
HETATM   17  C   UNK     0     -69.101  36.564  93.951  0.00  0.00     0.456 A 
HETATM   18  N   UNK     0     -69.627  37.611  94.950  0.00  0.00    -0.229 NA
HETATM   19  N   UNK     0     -69.595  35.115  93.787  0.00  0.00     0.656 N 
ENDBRANCH  13  14
BRANCH  13  20
HETATM   20  N   UNK     0     -70.135  41.179  95.602  0.00  0.00    -0.126 NA
BRANCH  20  21
HETATM   21  O   UNK     0     -71.335  40.433  96.218  0.00  0.00    -0.234 OA
HETATM   22  C   UNK     0     -71.224  39.794  97.614  0.00  0.00     0.211 C 
ENDBRANCH  20  21
ENDBRANCH  13  20
ENDBRANCH  11  13
ENDBRANCH   7  10
BRANCH   3  23
HETATM   23  C   UNK     0     -62.377  44.286  99.644  0.00  0.00     0.227 C 
HETATM   24  O   UNK     0     -62.554  45.427 100.692  0.00  0.00    -0.643 OA
HETATM   25  O   UNK     0     -61.580  42.988 100.084  0.00  0.00    -0.643 OA
ENDBRANCH   3  23
BRANCH   4  26
HETATM   26  C   UNK     0     -60.831  45.768  97.546  0.00  0.00     0.089 C 
BRANCH  26  27
HETATM   27  S   UNK     0     -59.662  45.582  96.594  0.00  0.00    -0.071 SA
BRANCH  27  28
HETATM   28  C   UNK     0     -59.357  44.193  96.061  0.00  0.00     0.190 A 
HETATM   29  N   UNK     0     -59.698  42.945  96.895  0.00  0.00    -0.192 NA
HETATM   30  C   UNK     0     -59.394  41.556  96.363  0.00  0.00     0.260 A 
HETATM   31  C   UNK     0     -58.720  41.370  94.939  0.00  0.00     0.274 A 
HETATM   32  O   UNK     0     -59.735  40.307  97.197  0.00  0.00    -0.165 OA
HETATM   33  N   UNK     0     -58.379  42.619  94.105  0.00  0.00    -0.136 NA
HETATM   34  O   UNK     0     -58.415  39.981  94.407  0.00  0.00    -0.164 OA
HETATM   35  N   UNK     0     -58.711  44.053  94.694  0.00  0.00    -0.225 N 
HETATM   36  C   UNK     0     -58.370  45.301  93.859  0.00  0.00     0.156 C 
ENDBRANCH  27  28
ENDBRANCH  26  27
ENDBRANCH   4  26
TORSDOF 9
ENDMDL
MODEL 4
REMARK VINA RESULT:      -6.5     21.403     25.755
REMARK  9 active torsions:
REMARK  status: ('A' for Active; 'I' for Inactive)
REMARK    1  A    between atoms: C_3  and  C_21 
REMARK    2  A    between atoms: C_4  and  C_14 
REMARK    3  A    between atoms: C_7  and  N_9 
REMARK       I    between atoms: N_9  and  C_10 
REMARK    4  A    between atoms: C_10  and  C_13 
REMARK    5  A    between atoms: C_13  and  C_15 
REMARK    6  A    between atoms: C_13  and  N_20 
REMARK    7  A    between atoms: C_14  and  S_24 
REMARK    8  A    between atoms: N_20  and  O_35 
REMARK    9  A    between atoms: S_24  and  C_25 
ROOT
HETATM    1  C   UNK     0     -49.602  21.021  73.536  0.00  0.00     0.308 A 
HETATM    2  N   UNK     0     -48.451  20.149  73.302  0.00  0.00    -0.297 N 
HETATM    3  C   UNK     0     -47.386  20.559  72.201  0.00  0.00     0.121 A 
HETATM    4  C   UNK     0     -47.559  21.838  71.400  0.00  0.00    -0.002 A 
HETATM    5  C   UNK     0     -48.710  22.710  71.635  0.00  0.00     0.065 A 
HETATM    6  S   UNK     0     -49.749  22.349  72.682  0.00  0.00    -0.194 SA
HETATM    7  C   UNK     0     -50.112  20.057  74.623  0.00  0.00     0.125 A 
HETATM    8  C   UNK     0     -48.961  19.184  74.388  0.00  0.00     0.211 A 
HETATM    9  O   UNK     0     -48.788  17.905  75.188  0.00  0.00    -0.170 OA
ENDROOT
BRANCH   7  10
HETATM   10  N   UNK     0     -51.151  19.695  75.669  0.00  0.00    -0.217 NA
HETATM   11  C   UNK     0     -52.612  20.013  75.400  0.00  0.00     0.234 C 
HETATM   12  O   UNK     0     -53.012  20.658  74.149  0.00  0.00    -0.167 OA
BRANCH  11  13
HETATM   13  C   UNK     0     -53.651  19.652  76.446  0.00  0.00     0.165 C 
BRANCH  13  14
HETATM   14  C   UNK     0     -53.217  18.961  77.806  0.00  0.00     0.091 A 
HETATM   15  C   UNK     0     -53.812  19.619  79.064  0.00  0.00     0.108 A 
HETATM   16  S   UNK     0     -53.280  18.815  80.265  0.00  0.00    -0.072 SA
HETATM   17  C   UNK     0     -52.329  17.624  79.756  0.00  0.00     0.456 A 
HETATM   18  N   UNK     0     -52.289  17.714  78.219  0.00  0.00    -0.229 NA
HETATM   19  N   UNK     0     -51.600  16.594  80.639  0.00  0.00     0.656 N 
ENDBRANCH  13  14
BRANCH  13  20
HETATM   20  N   UNK     0     -55.216  19.967  76.191  0.00  0.00    -0.126 NA
BRANCH  20  21
HETATM   21  O   UNK     0     -56.142  18.891  75.590  0.00  0.00    -0.234 OA
HETATM   22  C   UNK     0     -55.576  17.805  74.656  0.00  0.00     0.211 C 
ENDBRANCH  20  21
ENDBRANCH  13  20
ENDBRANCH  11  13
ENDBRANCH   7  10
BRANCH   3  23
HETATM   23  C   UNK     0     -46.175  19.641  71.954  0.00  0.00     0.227 C 
HETATM   24  O   UNK     0     -44.755  19.941  72.524  0.00  0.00    -0.643 OA
HETATM   25  O   UNK     0     -46.366  18.330  71.084  0.00  0.00    -0.643 OA
ENDBRANCH   3  23
BRANCH   4  26
HETATM   26  C   UNK     0     -46.459  22.154  70.341  0.00  0.00     0.089 C 
BRANCH  26  27
HETATM   27  S   UNK     0     -45.301  23.022  70.801  0.00  0.00    -0.071 SA
BRANCH  27  28
HETATM   28  C   UNK     0     -45.515  24.518  70.953  0.00  0.00     0.190 A 
HETATM   29  N   UNK     0     -45.626  25.152  72.351  0.00  0.00    -0.192 NA
HETATM   30  C   UNK     0     -45.841  26.648  72.503  0.00  0.00     0.260 A 
HETATM   31  C   UNK     0     -45.952  27.579  71.224  0.00  0.00     0.274 A 
HETATM   32  O   UNK     0     -45.952  27.283  73.902  0.00  0.00    -0.165 OA
HETATM   33  N   UNK     0     -45.841  26.944  69.826  0.00  0.00    -0.136 NA
HETATM   34  O   UNK     0     -46.167  29.074  71.376  0.00  0.00    -0.164 OA
HETATM   35  N   UNK     0     -45.617  25.379  69.706  0.00  0.00    -0.225 N 
HETATM   36  C   UNK     0     -45.505  24.744  68.307  0.00  0.00     0.156 C 
ENDBRANCH  27  28
ENDBRANCH  26  27
ENDBRANCH   4  26
TORSDOF 9
ENDMDL
MODEL 5
REMARK VINA RESULT:      -6.5     33.933     38.837
REMARK  9 active torsions:
REMARK  status: ('A' for Active; 'I' for Inactive)
REMARK    1  A    between atoms: C_3  and  C_21 
REMARK    2  A    between atoms: C_4  and  C_14 
REMARK    3  A    between atoms: C_7  and  N_9 
REMARK       I    between atoms: N_9  and  C_10 
REMARK    4  A    between atoms: C_10  and  C_13 
REMARK    5  A    between atoms: C_13  and  C_15 
REMARK    6  A    between atoms: C_13  and  N_20 
REMARK    7  A    between atoms: C_14  and  S_24 
REMARK    8  A    between atoms: N_20  and  O_35 
REMARK    9  A    between atoms: S_24  and  C_25 
ROOT
HETATM    1  C   UNK     0     -64.861  43.711  96.481  0.00  0.00     0.308 A 
HETATM    2  N   UNK     0     -64.337  43.684  97.846  0.00  0.00    -0.297 N 
HETATM    3  C   UNK     0     -62.984  44.446  98.167  0.00  0.00     0.121 A 
HETATM    4  C   UNK     0     -62.242  45.192  97.072  0.00  0.00    -0.002 A 
HETATM    5  C   UNK     0     -62.766  45.219  95.706  0.00  0.00     0.065 A 
HETATM    6  S   UNK     0     -64.060  44.501  95.364  0.00  0.00    -0.194 SA
HETATM    7  C   UNK     0     -66.058  42.849  96.923  0.00  0.00     0.125 A 
HETATM    8  C   UNK     0     -65.534  42.822  98.289  0.00  0.00     0.211 A 
HETATM    9  O   UNK     0     -66.276  42.076  99.383  0.00  0.00    -0.170 OA
ENDROOT
BRANCH   7  10
HETATM   10  N   UNK     0     -67.352  42.131  96.580  0.00  0.00    -0.217 NA
HETATM   11  C   UNK     0     -67.322  41.002  95.565  0.00  0.00     0.234 C 
HETATM   12  O   UNK     0     -66.066  40.612  94.926  0.00  0.00    -0.167 OA
BRANCH  11  13
HETATM   13  C   UNK     0     -68.616  40.284  95.222  0.00  0.00     0.165 C 
BRANCH  13  14
HETATM   14  C   UNK     0     -69.562  40.835  94.075  0.00  0.00     0.091 A 
HETATM   15  C   UNK     0     -69.866  42.341  94.181  0.00  0.00     0.108 A 
HETATM   16  S   UNK     0     -70.787  42.679  92.994  0.00  0.00    -0.072 SA
HETATM   17  C   UNK     0     -71.072  41.360  92.120  0.00  0.00     0.456 A 
HETATM   18  N   UNK     0     -70.307  40.207  92.796  0.00  0.00    -0.229 NA
HETATM   19  N   UNK     0     -71.943  41.272  90.853  0.00  0.00     0.656 N 
ENDBRANCH  13  14
BRANCH  13  20
HETATM   20  N   UNK     0     -69.047  38.946  96.022  0.00  0.00    -0.126 NA
BRANCH  20  21
HETATM   21  O   UNK     0     -69.604  37.726  95.262  0.00  0.00    -0.234 OA
HETATM   22  C   UNK     0     -68.750  37.013  94.198  0.00  0.00     0.211 C 
ENDBRANCH  20  21
ENDBRANCH  13  20
ENDBRANCH  11  13
ENDBRANCH   7  10
BRANCH   3  23
HETATM   23  C   UNK     0     -62.432  44.417  99.604  0.00  0.00     0.227 C 
HETATM   24  O   UNK     0     -62.671  45.570 100.626  0.00  0.00    -0.643 OA
HETATM   25  O   UNK     0     -61.582  43.165 100.078  0.00  0.00    -0.643 OA
ENDBRANCH   3  23
BRANCH   4  26
HETATM   26  C   UNK     0     -60.921  45.909  97.486  0.00  0.00     0.089 C 
BRANCH  26  27
HETATM   27  S   UNK     0     -59.716  45.687  96.590  0.00  0.00    -0.071 SA
BRANCH  27  28
HETATM   28  C   UNK     0     -59.432  44.289  96.068  0.00  0.00     0.190 A 
HETATM   29  N   UNK     0     -59.861  43.051  96.878  0.00  0.00    -0.192 NA
HETATM   30  C   UNK     0     -59.577  41.654  96.356  0.00  0.00     0.260 A 
HETATM   31  C   UNK     0     -58.836  41.448  94.969  0.00  0.00     0.274 A 
HETATM   32  O   UNK     0     -60.006  40.416  97.165  0.00  0.00    -0.165 OA
HETATM   33  N   UNK     0     -58.407  42.686  94.160  0.00  0.00    -0.136 NA
HETATM   34  O   UNK     0     -58.553  40.050  94.447  0.00  0.00    -0.164 OA
HETATM   35  N   UNK     0     -58.720  44.129  94.736  0.00  0.00    -0.225 N 
HETATM   36  C   UNK     0     -58.291  45.367  93.926  0.00  0.00     0.156 C 
ENDBRANCH  27  28
ENDBRANCH  26  27
ENDBRANCH   4  26
TORSDOF 9
ENDMDL
MODEL 6
REMARK VINA RESULT:      -6.4     22.982     28.331
REMARK  9 active torsions:
REMARK  status: ('A' for Active; 'I' for Inactive)
REMARK    1  A    between atoms: C_3  and  C_21 
REMARK    2  A    between atoms: C_4  and  C_14 
REMARK    3  A    between atoms: C_7  and  N_9 
REMARK       I    between atoms: N_9  and  C_10 
REMARK    4  A    between atoms: C_10  and  C_13 
REMARK    5  A    between atoms: C_13  and  C_15 
REMARK    6  A    between atoms: C_13  and  N_20 
REMARK    7  A    between atoms: C_14  and  S_24 
REMARK    8  A    between atoms: N_20  and  O_35 
REMARK    9  A    between atoms: S_24  and  C_25 
ROOT
HETATM    1  C   UNK     0     -51.791  20.557  74.029  0.00  0.00     0.308 A 
HETATM    2  N   UNK     0     -53.104  21.001  73.560  0.00  0.00    -0.297 N 
HETATM    3  C   UNK     0     -54.392  20.617  74.402  0.00  0.00     0.121 A 
HETATM    4  C   UNK     0     -54.265  19.800  75.675  0.00  0.00    -0.002 A 
HETATM    5  C   UNK     0     -52.952  19.355  76.143  0.00  0.00     0.065 A 
HETATM    6  S   UNK     0     -51.697  19.705  75.363  0.00  0.00    -0.194 SA
HETATM    7  C   UNK     0     -51.128  21.243  72.820  0.00  0.00     0.125 A 
HETATM    8  C   UNK     0     -52.441  21.688  72.352  0.00  0.00     0.211 A 
HETATM    9  O   UNK     0     -52.568  22.505  71.078  0.00  0.00    -0.170 OA
ENDROOT
BRANCH   7  10
HETATM   10  N   UNK     0     -49.873  21.593  72.039  0.00  0.00    -0.217 NA
HETATM   11  C   UNK     0     -48.526  21.524  72.738  0.00  0.00     0.234 C 
HETATM   12  O   UNK     0     -48.439  21.127  74.143  0.00  0.00    -0.167 OA
BRANCH  11  13
HETATM   13  C   UNK     0     -47.272  21.874  71.957  0.00  0.00     0.165 C 
BRANCH  13  14
HETATM   14  C   UNK     0     -46.750  23.371  71.901  0.00  0.00     0.091 A 
HETATM   15  C   UNK     0     -47.636  24.314  71.066  0.00  0.00     0.108 A 
HETATM   16  S   UNK     0     -46.972  25.701  71.133  0.00  0.00    -0.072 SA
HETATM   17  C   UNK     0     -45.638  25.635  72.029  0.00  0.00     0.456 A 
HETATM   18  N   UNK     0     -45.500  24.178  72.509  0.00  0.00    -0.229 NA
HETATM   19  N   UNK     0     -44.688  26.804  72.343  0.00  0.00     0.656 N 
ENDBRANCH  13  14
BRANCH  13  20
HETATM   20  N   UNK     0     -46.449  20.726  71.170  0.00  0.00    -0.126 NA
BRANCH  20  21
HETATM   21  O   UNK     0     -45.372  19.898  71.899  0.00  0.00    -0.234 OA
HETATM   22  C   UNK     0     -44.139  20.587  72.513  0.00  0.00     0.211 C 
ENDBRANCH  20  21
ENDBRANCH  13  20
ENDBRANCH  11  13
ENDBRANCH   7  10
BRANCH   3  23
HETATM   23  C   UNK     0     -55.774  21.085  73.909  0.00  0.00     0.227 C 
HETATM   24  O   UNK     0     -56.791  20.132  73.209  0.00  0.00    -0.643 OA
HETATM   25  O   UNK     0     -56.194  22.599  74.116  0.00  0.00    -0.643 OA
ENDBRANCH   3  23
BRANCH   4  26
HETATM   26  C   UNK     0     -55.589  19.473  76.431  0.00  0.00     0.089 C 
BRANCH  26  27
HETATM   27  S   UNK     0     -55.720  20.022  77.841  0.00  0.00    -0.071 SA
BRANCH  27  28
HETATM   28  C   UNK     0     -55.271  19.166  79.012  0.00  0.00     0.190 A 
HETATM   29  N   UNK     0     -54.654  17.775  78.771  0.00  0.00    -0.192 NA
HETATM   30  C   UNK     0     -54.204  16.919  79.941  0.00  0.00     0.260 A 
HETATM   31  C   UNK     0     -54.363  17.443  81.429  0.00  0.00     0.274 A 
HETATM   32  O   UNK     0     -53.588  15.528  79.700  0.00  0.00    -0.165 OA
HETATM   33  N   UNK     0     -54.979  18.834  81.670  0.00  0.00    -0.136 NA
HETATM   34  O   UNK     0     -53.913  16.587  82.600  0.00  0.00    -0.164 OA
HETATM   35  N   UNK     0     -55.437  19.700  80.424  0.00  0.00    -0.225 N 
HETATM   36  C   UNK     0     -56.054  21.090  80.665  0.00  0.00     0.156 C 
ENDBRANCH  27  28
ENDBRANCH  26  27
ENDBRANCH   4  26
TORSDOF 9
ENDMDL
MODEL 7
REMARK VINA RESULT:      -6.4     24.500     27.517
REMARK  9 active torsions:
REMARK  status: ('A' for Active; 'I' for Inactive)
REMARK    1  A    between atoms: C_3  and  C_21 
REMARK    2  A    between atoms: C_4  and  C_14 
REMARK    3  A    between atoms: C_7  and  N_9 
REMARK       I    between atoms: N_9  and  C_10 
REMARK    4  A    between atoms: C_10  and  C_13 
REMARK    5  A    between atoms: C_13  and  C_15 
REMARK    6  A    between atoms: C_13  and  N_20 
REMARK    7  A    between atoms: C_14  and  S_24 
REMARK    8  A    between atoms: N_20  and  O_35 
REMARK    9  A    between atoms: S_24  and  C_25 
ROOT
HETATM    1  C   UNK     0     -67.503  49.598  74.398  0.00  0.00     0.308 A 
HETATM    2  N   UNK     0     -67.212  48.300  73.790  0.00  0.00    -0.297 N 
HETATM    3  C   UNK     0     -68.363  47.540  73.008  0.00  0.00     0.121 A 
HETATM    4  C   UNK     0     -69.748  48.150  72.892  0.00  0.00    -0.002 A 
HETATM    5  C   UNK     0     -70.040  49.449  73.501  0.00  0.00     0.065 A 
HETATM    6  S   UNK     0     -68.961  50.204  74.257  0.00  0.00    -0.194 SA
HETATM    7  C   UNK     0     -66.054  49.683  74.911  0.00  0.00     0.125 A 
HETATM    8  C   UNK     0     -65.762  48.385  74.303  0.00  0.00     0.211 A 
HETATM    9  O   UNK     0     -64.376  47.774  74.419  0.00  0.00    -0.170 OA
ENDROOT
BRANCH   7  10
HETATM   10  N   UNK     0     -64.975  50.439  75.667  0.00  0.00    -0.217 NA
HETATM   11  C   UNK     0     -64.112  51.439  74.918  0.00  0.00     0.234 C 
HETATM   12  O   UNK     0     -64.316  51.670  73.488  0.00  0.00    -0.167 OA
BRANCH  11  13
HETATM   13  C   UNK     0     -63.033  52.195  75.674  0.00  0.00     0.165 C 
BRANCH  13  14
HETATM   14  C   UNK     0     -63.287  52.687  77.160  0.00  0.00     0.091 A 
HETATM   15  C   UNK     0     -64.199  53.923  77.265  0.00  0.00     0.108 A 
HETATM   16  S   UNK     0     -64.322  54.242  78.766  0.00  0.00    -0.072 SA
HETATM   17  C   UNK     0     -63.471  53.185  79.629  0.00  0.00     0.456 A 
HETATM   18  N   UNK     0     -62.824  52.213  78.625  0.00  0.00    -0.229 NA
HETATM   19  N   UNK     0     -63.333  53.156  81.162  0.00  0.00     0.656 N 
ENDBRANCH  13  14
BRANCH  13  20
HETATM   20  N   UNK     0     -61.609  52.509  74.975  0.00  0.00    -0.126 NA
BRANCH  20  21
HETATM   21  O   UNK     0     -61.308  52.002  73.551  0.00  0.00    -0.234 OA
HETATM   22  C   UNK     0     -60.549  52.891  72.549  0.00  0.00     0.211 C 
ENDBRANCH  20  21
ENDBRANCH  13  20
ENDBRANCH  11  13
ENDBRANCH   7  10
BRANCH   3  23
HETATM   23  C   UNK     0     -68.056  46.173  72.368  0.00  0.00     0.227 C 
HETATM   24  O   UNK     0     -67.452  46.024  70.938  0.00  0.00    -0.643 OA
HETATM   25  O   UNK     0     -68.363  44.852  73.188  0.00  0.00    -0.643 OA
ENDBRANCH   3  23
BRANCH   4  26
HETATM   26  C   UNK     0     -70.812  47.326  72.104  0.00  0.00     0.089 C 
BRANCH  26  27
HETATM   27  S   UNK     0     -72.204  47.925  72.011  0.00  0.00    -0.071 SA
BRANCH  27  28
HETATM   28  C   UNK     0     -73.176  47.376  70.980  0.00  0.00     0.190 A 
HETATM   29  N   UNK     0     -73.099  47.834  69.512  0.00  0.00    -0.192 NA
HETATM   30  C   UNK     0     -74.070  47.285  68.482  0.00  0.00     0.260 A 
HETATM   31  C   UNK     0     -75.178  46.232  68.902  0.00  0.00     0.274 A 
HETATM   32  O   UNK     0     -73.993  47.744  67.014  0.00  0.00    -0.165 OA
HETATM   33  N   UNK     0     -75.255  45.773  70.370  0.00  0.00    -0.136 NA
HETATM   34  O   UNK     0     -76.149  45.683  67.872  0.00  0.00    -0.164 OA
HETATM   35  N   UNK     0     -74.224  46.368  71.418  0.00  0.00    -0.225 N 
HETATM   36  C   UNK     0     -74.301  45.910  72.886  0.00  0.00     0.156 C 
ENDBRANCH  27  28
ENDBRANCH  26  27
ENDBRANCH   4  26
TORSDOF 9
ENDMDL
MODEL 8
REMARK VINA RESULT:      -6.3      1.321      1.954
REMARK  9 active torsions:
REMARK  status: ('A' for Active; 'I' for Inactive)
REMARK    1  A    between atoms: C_3  and  C_21 
REMARK    2  A    between atoms: C_4  and  C_14 
REMARK    3  A    between atoms: C_7  and  N_9 
REMARK       I    between atoms: N_9  and  C_10 
REMARK    4  A    between atoms: C_10  and  C_13 
REMARK    5  A    between atoms: C_13  and  C_15 
REMARK    6  A    between atoms: C_13  and  N_20 
REMARK    7  A    between atoms: C_14  and  S_24 
REMARK    8  A    between atoms: N_20  and  O_35 
REMARK    9  A    between atoms: S_24  and  C_25 
ROOT
HETATM    1  C   UNK     0     -42.033  43.444  64.174  0.00  0.00     0.308 A 
HETATM    2  N   UNK     0     -42.452  42.883  62.889  0.00  0.00    -0.297 N 
HETATM    3  C   UNK     0     -42.760  43.866  61.683  0.00  0.00     0.121 A 
HETATM    4  C   UNK     0     -42.621  45.368  61.860  0.00  0.00    -0.002 A 
HETATM    5  C   UNK     0     -42.202  45.929  63.144  0.00  0.00     0.065 A 
HETATM    6  S   UNK     0     -41.899  45.017  64.321  0.00  0.00    -0.194 SA
HETATM    7  C   UNK     0     -41.937  42.024  64.762  0.00  0.00     0.125 A 
HETATM    8  C   UNK     0     -42.356  41.463  63.477  0.00  0.00     0.211 A 
HETATM    9  O   UNK     0     -42.495  39.961  63.301  0.00  0.00    -0.170 OA
ENDROOT
BRANCH   7  10
HETATM   10  N   UNK     0     -41.635  41.112  65.938  0.00  0.00    -0.217 NA
HETATM   11  C   UNK     0     -41.889  41.617  67.348  0.00  0.00     0.234 C 
HETATM   12  O   UNK     0     -42.418  42.963  67.569  0.00  0.00    -0.167 OA
BRANCH  11  13
HETATM   13  C   UNK     0     -41.587  40.705  68.524  0.00  0.00     0.165 C 
BRANCH  13  14
HETATM   14  C   UNK     0     -42.308  40.925  69.919  0.00  0.00     0.091 A 
HETATM   15  C   UNK     0     -43.832  40.706  69.880  0.00  0.00     0.108 A 
HETATM   16  S   UNK     0     -44.341  40.964  71.310  0.00  0.00    -0.072 SA
HETATM   17  C   UNK     0     -43.115  41.355  72.273  0.00  0.00     0.456 A 
HETATM   18  N   UNK     0     -41.844  41.331  71.404  0.00  0.00    -0.229 NA
HETATM   19  N   UNK     0     -43.200  41.687  73.774  0.00  0.00     0.656 N 
ENDBRANCH  13  14
BRANCH  13  20
HETATM   20  N   UNK     0     -40.525  39.495  68.372  0.00  0.00    -0.126 NA
BRANCH  20  21
HETATM   21  O   UNK     0     -39.022  39.790  68.202  0.00  0.00    -0.234 OA
HETATM   22  C   UNK     0     -38.528  41.234  67.999  0.00  0.00     0.211 C 
ENDBRANCH  20  21
ENDBRANCH  13  20
ENDBRANCH  11  13
ENDBRANCH   7  10
BRANCH   3  23
HETATM   23  C   UNK     0     -43.201  43.276  60.331  0.00  0.00     0.227 C 
HETATM   24  O   UNK     0     -42.403  43.496  59.010  0.00  0.00    -0.643 OA
HETATM   25  O   UNK     0     -44.523  42.404  60.266  0.00  0.00    -0.643 OA
ENDBRANCH   3  23
BRANCH   4  26
HETATM   26  C   UNK     0     -42.945  46.250  60.616  0.00  0.00     0.089 C 
BRANCH  26  27
HETATM   27  S   UNK     0     -43.093  47.742  60.860  0.00  0.00    -0.071 SA
BRANCH  27  28
HETATM   28  C   UNK     0     -44.253  48.483  60.217  0.00  0.00     0.190 A 
HETATM   29  N   UNK     0     -44.106  49.093  58.811  0.00  0.00    -0.192 NA
HETATM   30  C   UNK     0     -45.266  49.834  58.168  0.00  0.00     0.260 A 
HETATM   31  C   UNK     0     -46.644  49.991  58.936  0.00  0.00     0.274 A 
HETATM   32  O   UNK     0     -45.120  50.444  56.762  0.00  0.00    -0.165 OA
HETATM   33  N   UNK     0     -46.791  49.381  60.342  0.00  0.00    -0.136 NA
HETATM   34  O   UNK     0     -47.804  50.732  58.293  0.00  0.00    -0.164 OA
HETATM   35  N   UNK     0     -45.559  48.614  60.981  0.00  0.00    -0.225 N 
HETATM   36  C   UNK     0     -45.705  48.004  62.387  0.00  0.00     0.156 C 
ENDBRANCH  27  28
ENDBRANCH  26  27
ENDBRANCH   4  26
TORSDOF 9
ENDMDL
MODEL 9
REMARK VINA RESULT:      -6.2     35.788     42.635
REMARK  9 active torsions:
REMARK  status: ('A' for Active; 'I' for Inactive)
REMARK    1  A    between atoms: C_3  and  C_21 
REMARK    2  A    between atoms: C_4  and  C_14 
REMARK    3  A    between atoms: C_7  and  N_9 
REMARK       I    between atoms: N_9  and  C_10 
REMARK    4  A    between atoms: C_10  and  C_13 
REMARK    5  A    between atoms: C_13  and  C_15 
REMARK    6  A    between atoms: C_13  and  N_20 
REMARK    7  A    between atoms: C_14  and  S_24 
REMARK    8  A    between atoms: N_20  and  O_35 
REMARK    9  A    between atoms: S_24  and  C_25 
ROOT
HETATM    1  C   UNK     0     -31.859  31.201 101.027  0.00  0.00     0.308 A 
HETATM    2  N   UNK     0     -32.781  30.487 101.911  0.00  0.00    -0.297 N 
HETATM    3  C   UNK     0     -32.201  29.415 102.925  0.00  0.00     0.121 A 
HETATM    4  C   UNK     0     -30.709  29.134 102.979  0.00  0.00    -0.002 A 
HETATM    5  C   UNK     0     -29.787  29.848 102.096  0.00  0.00     0.065 A 
HETATM    6  S   UNK     0     -30.308  30.881 101.112  0.00  0.00    -0.194 SA
HETATM    7  C   UNK     0     -33.043  31.974 100.417  0.00  0.00     0.125 A 
HETATM    8  C   UNK     0     -33.965  31.260 101.300  0.00  0.00     0.211 A 
HETATM    9  O   UNK     0     -35.456  31.541 101.246  0.00  0.00    -0.170 OA
ENDROOT
BRANCH   7  10
HETATM   10  N   UNK     0     -33.564  33.007  99.433  0.00  0.00    -0.217 NA
HETATM   11  C   UNK     0     -33.451  34.481  99.782  0.00  0.00     0.234 C 
HETATM   12  O   UNK     0     -32.848  34.900 101.047  0.00  0.00    -0.167 OA
BRANCH  11  13
HETATM   13  C   UNK     0     -33.971  35.514  98.798  0.00  0.00     0.165 C 
BRANCH  13  14
HETATM   14  C   UNK     0     -32.978  36.536  98.103  0.00  0.00     0.091 A 
HETATM   15  C   UNK     0     -31.821  35.866  97.338  0.00  0.00     0.108 A 
HETATM   16  S   UNK     0     -30.979  37.010  96.743  0.00  0.00    -0.072 SA
HETATM   17  C   UNK     0     -31.615  38.432  97.140  0.00  0.00     0.456 A 
HETATM   18  N   UNK     0     -32.865  38.136  97.990  0.00  0.00    -0.229 NA
HETATM   19  N   UNK     0     -31.076  39.818  96.743  0.00  0.00     0.656 N 
ENDBRANCH  13  14
BRANCH  13  20
HETATM   20  N   UNK     0     -35.547  35.587  98.444  0.00  0.00    -0.126 NA
BRANCH  20  21
HETATM   21  O   UNK     0     -36.567  36.048  99.504  0.00  0.00    -0.234 OA
HETATM   22  C   UNK     0     -36.428  35.597 100.969  0.00  0.00     0.211 C 
ENDBRANCH  20  21
ENDBRANCH  13  20
ENDBRANCH  11  13
ENDBRANCH   7  10
BRANCH   3  23
HETATM   23  C   UNK     0     -33.171  28.663 103.855  0.00  0.00     0.227 C 
HETATM   24  O   UNK     0     -33.585  29.200 105.259  0.00  0.00    -0.643 OA
HETATM   25  O   UNK     0     -33.783  27.282 103.374  0.00  0.00    -0.643 OA
ENDBRANCH   3  23
BRANCH   4  26
HETATM   26  C   UNK     0     -30.237  28.063 104.009  0.00  0.00     0.089 C 
BRANCH  26  27
HETATM   27  S   UNK     0     -29.360  28.554 105.147  0.00  0.00    -0.071 SA
BRANCH  27  28
HETATM   28  C   UNK     0     -30.017  29.121 106.394  0.00  0.00     0.190 A 
HETATM   29  N   UNK     0     -30.779  30.458 106.336  0.00  0.00    -0.192 NA
HETATM   30  C   UNK     0     -31.436  31.024 107.583  0.00  0.00     0.260 A 
HETATM   31  C   UNK     0     -31.347  30.247 108.962  0.00  0.00     0.274 A 
HETATM   32  O   UNK     0     -32.199  32.361 107.525  0.00  0.00    -0.165 OA
HETATM   33  N   UNK     0     -30.585  28.910 109.020  0.00  0.00    -0.136 NA
HETATM   34  O   UNK     0     -32.004  30.813 110.209  0.00  0.00    -0.164 OA
HETATM   35  N   UNK     0     -29.912  28.350 107.698  0.00  0.00    -0.225 N 
HETATM   36  C   UNK     0     -29.149  27.013 107.756  0.00  0.00     0.156 C 
ENDBRANCH  27  28
ENDBRANCH  26  27
ENDBRANCH   4  26
TORSDOF 9
ENDMDL
MODEL 10
REMARK VINA RESULT:      -6.1     44.053     47.997
REMARK  9 active torsions:
REMARK  status: ('A' for Active; 'I' for Inactive)
REMARK    1  A    between atoms: C_3  and  C_21 
REMARK    2  A    between atoms: C_4  and  C_14 
REMARK    3  A    between atoms: C_7  and  N_9 
REMARK       I    between atoms: N_9  and  C_10 
REMARK    4  A    between atoms: C_10  and  C_13 
REMARK    5  A    between atoms: C_13  and  C_15 
REMARK    6  A    between atoms: C_13  and  N_20 
REMARK    7  A    between atoms: C_14  and  S_24 
REMARK    8  A    between atoms: N_20  and  O_35 
REMARK    9  A    between atoms: S_24  and  C_25 
ROOT
HETATM    1  C   UNK     0     -41.182  45.841 112.658  0.00  0.00     0.308 A 
HETATM    2  N   UNK     0     -41.959  46.959 112.123  0.00  0.00    -0.297 N 
HETATM    3  C   UNK     0     -43.443  47.180 112.634  0.00  0.00     0.121 A 
HETATM    4  C   UNK     0     -44.050  46.245 113.665  0.00  0.00    -0.002 A 
HETATM    5  C   UNK     0     -43.273  45.127 114.201  0.00  0.00     0.065 A 
HETATM    6  S   UNK     0     -41.849  44.885 113.733  0.00  0.00    -0.194 SA
HETATM    7  C   UNK     0     -39.987  46.249 111.777  0.00  0.00     0.125 A 
HETATM    8  C   UNK     0     -40.764  47.367 111.241  0.00  0.00     0.211 A 
HETATM    9  O   UNK     0     -40.156  48.302 110.210  0.00  0.00    -0.170 OA
ENDROOT
BRANCH   7  10
HETATM   10  N   UNK     0     -38.562  46.007 111.309  0.00  0.00    -0.217 NA
HETATM   11  C   UNK     0     -38.271  44.814 110.416  0.00  0.00     0.234 C 
HETATM   12  O   UNK     0     -39.348  43.910 110.011  0.00  0.00    -0.167 OA
BRANCH  11  13
HETATM   13  C   UNK     0     -36.847  44.572 109.949  0.00  0.00     0.165 C 
BRANCH  13  14
HETATM   14  C   UNK     0     -36.509  43.350 108.997  0.00  0.00     0.091 A 
HETATM   15  C   UNK     0     -35.922  42.128 109.728  0.00  0.00     0.108 A 
HETATM   16  S   UNK     0     -35.665  41.062 108.647  0.00  0.00    -0.072 SA
HETATM   17  C   UNK     0     -36.097  41.621 107.203  0.00  0.00     0.456 A 
HETATM   18  N   UNK     0     -36.625  43.051 107.421  0.00  0.00    -0.229 NA
HETATM   19  N   UNK     0     -36.001  40.867 105.864  0.00  0.00     0.656 N 
ENDBRANCH  13  14
BRANCH  13  20
HETATM   20  N   UNK     0     -35.652  45.558 110.415  0.00  0.00    -0.126 NA
BRANCH  20  21
HETATM   21  O   UNK     0     -34.910  45.313 111.743  0.00  0.00    -0.234 OA
HETATM   22  C   UNK     0     -33.576  44.545 111.763  0.00  0.00     0.211 C 
ENDBRANCH  20  21
ENDBRANCH  13  20
ENDBRANCH  11  13
ENDBRANCH   7  10
BRANCH   3  23
HETATM   23  C   UNK     0     -44.261  48.357 112.071  0.00  0.00     0.227 C 
HETATM   24  O   UNK     0     -45.091  48.259 110.755  0.00  0.00    -0.643 OA
HETATM   25  O   UNK     0     -44.266  49.736 112.854  0.00  0.00    -0.643 OA
ENDBRANCH   3  23
BRANCH   4  26
HETATM   26  C   UNK     0     -45.516  46.545 114.104  0.00  0.00     0.089 C 
BRANCH  26  27
HETATM   27  S   UNK     0     -46.608  45.734 113.430  0.00  0.00    -0.071 SA
BRANCH  27  28
HETATM   28  C   UNK     0     -46.590  44.221 113.560  0.00  0.00     0.190 A 
HETATM   29  N   UNK     0     -45.917  43.353 112.480  0.00  0.00    -0.192 NA
HETATM   30  C   UNK     0     -45.899  41.840 112.610  0.00  0.00     0.260 A 
HETATM   31  C   UNK     0     -46.573  41.132 113.858  0.00  0.00     0.274 A 
HETATM   32  O   UNK     0     -45.226  40.972 111.530  0.00  0.00    -0.165 OA
HETATM   33  N   UNK     0     -47.246  42.000 114.937  0.00  0.00    -0.136 NA
HETATM   34  O   UNK     0     -46.556  39.619 113.987  0.00  0.00    -0.164 OA
HETATM   35  N   UNK     0     -47.246  43.576 114.768  0.00  0.00    -0.225 N 
HETATM   36  C   UNK     0     -47.919  44.445 115.848  0.00  0.00     0.156 C 
ENDBRANCH  27  28
ENDBRANCH  26  27
ENDBRANCH   4  26
TORSDOF 9
ENDMDL
