MODEL 1
REMARK VINA RESULT:      -7.5      0.000      0.000
REMARK  1 active torsions:
REMARK  status: ('A' for Active; 'I' for Inactive)
REMARK    1  A    between atoms: N_7  and  C_15 
ROOT
HETATM    1 Cl   UNK     0     -45.597  26.326  71.715  0.00  0.00    -0.143 Cl
HETATM    2  O   UNK     0     -40.214  28.346  66.868  0.00  0.00    -0.168 OA
HETATM    3  N   UNK     0     -42.092  26.804  67.812  0.00  0.00    -0.223 NA
HETATM    4  N   UNK     0     -42.319  29.236  70.263  0.00  0.00    -0.240 NA
HETATM    5  C   UNK     0     -43.795  26.900  70.002  0.00  0.00     0.042 A 
HETATM    6  C   UNK     0     -43.215  26.270  68.722  0.00  0.00     0.064 A 
HETATM    7  C   UNK     0     -43.397  28.220  70.687  0.00  0.00     0.080 A 
HETATM    8  C   UNK     0     -44.178  28.571  71.967  0.00  0.00     0.001 A 
HETATM    9  C   UNK     0     -44.975  26.177  70.814  0.00  0.00     0.067 A 
HETATM   10  C   UNK     0     -43.774  24.873  68.165  0.00  0.00     0.052 A 
HETATM   11  C   UNK     0     -41.374  29.182  69.048  0.00  0.00     0.146 A 
HETATM   12  C   UNK     0     -45.557  24.780  70.285  0.00  0.00     0.114 A 
HETATM   13  C   UNK     0     -41.273  28.100  67.957  0.00  0.00     0.232 A 
HETATM   14  C   UNK     0     -44.953  24.123  68.953  0.00  0.00     0.058 A 
HETATM   15  C   UNK     0     -45.279  27.624  72.481  0.00  0.00     0.022 A 
HETATM   16  C   UNK     0     -43.860  29.869  72.733  0.00  0.00     0.028 A 
HETATM   17  C   UNK     0     -46.061  27.975  73.760  0.00  0.00     0.037 A 
HETATM   18  C   UNK     0     -44.643  30.219  74.012  0.00  0.00     0.005 A 
HETATM   19  C   UNK     0     -45.742  29.272  74.525  0.00  0.00     0.006 A 
ENDROOT
BRANCH  12  20
HETATM   20  N   UNK     0     -46.690  24.072  71.053  0.00  0.00    -0.117 N 
HETATM   21  O   UNK     0     -46.354  23.124  72.219  0.00  0.00    -0.532 OA
HETATM   22  O   UNK     0     -48.157  24.314  70.654  0.00  0.00    -0.532 OA
ENDBRANCH  12  20
TORSDOF 1
ENDMDL
MODEL 2
REMARK VINA RESULT:      -6.9      2.776      6.485
REMARK  1 active torsions:
REMARK  status: ('A' for Active; 'I' for Inactive)
REMARK    1  A    between atoms: N_7  and  C_15 
ROOT
HETATM    1 Cl   UNK     0     -43.104  27.141  68.958  0.00  0.00    -0.143 Cl
HETATM    2  O   UNK     0     -45.585  29.866  75.513  0.00  0.00    -0.168 OA
HETATM    3  N   UNK     0     -44.093  29.834  73.375  0.00  0.00    -0.223 NA
HETATM    4  N   UNK     0     -45.872  26.957  72.648  0.00  0.00    -0.240 NA
HETATM    5  C   UNK     0     -43.858  28.165  71.170  0.00  0.00     0.042 A 
HETATM    6  C   UNK     0     -43.490  29.390  72.028  0.00  0.00     0.064 A 
HETATM    7  C   UNK     0     -44.918  27.083  71.446  0.00  0.00     0.080 A 
HETATM    8  C   UNK     0     -45.039  25.980  70.378  0.00  0.00     0.001 A 
HETATM    9  C   UNK     0     -43.104  27.876  69.784  0.00  0.00     0.067 A 
HETATM   10  C   UNK     0     -42.344  30.410  71.560  0.00  0.00     0.052 A 
HETATM   11  C   UNK     0     -46.002  27.883  73.872  0.00  0.00     0.146 A 
HETATM   12  C   UNK     0     -41.953  28.875  69.286  0.00  0.00     0.114 A 
HETATM   13  C   UNK     0     -45.210  29.163  74.195  0.00  0.00     0.232 A 
HETATM   14  C   UNK     0     -41.571  30.150  70.180  0.00  0.00     0.058 A 
HETATM   15  C   UNK     0     -44.133  26.009  69.133  0.00  0.00     0.022 A 
HETATM   16  C   UNK     0     -46.069  24.847  70.555  0.00  0.00     0.028 A 
HETATM   17  C   UNK     0     -44.254  24.906  68.066  0.00  0.00     0.037 A 
HETATM   18  C   UNK     0     -46.190  23.744  69.486  0.00  0.00     0.005 A 
HETATM   19  C   UNK     0     -45.283  23.774  68.243  0.00  0.00     0.006 A 
ENDROOT
BRANCH  12  20
HETATM   20  N   UNK     0     -41.220  28.611  67.957  0.00  0.00    -0.117 N 
HETATM   21  O   UNK     0     -41.687  29.312  66.667  0.00  0.00    -0.532 OA
HETATM   22  O   UNK     0     -40.020  27.647  67.918  0.00  0.00    -0.532 OA
ENDBRANCH  12  20
TORSDOF 1
ENDMDL
MODEL 3
REMARK VINA RESULT:      -6.7     29.538     30.080
REMARK  1 active torsions:
REMARK  status: ('A' for Active; 'I' for Inactive)
REMARK    1  A    between atoms: N_7  and  C_15 
ROOT
HETATM    1 Cl   UNK     0     -60.431  43.846  55.446  0.00  0.00    -0.143 Cl
HETATM    2  O   UNK     0     -62.119  50.067  51.575  0.00  0.00    -0.168 OA
HETATM    3  N   UNK     0     -60.702  48.602  53.201  0.00  0.00    -0.223 NA
HETATM    4  N   UNK     0     -63.120  46.218  52.537  0.00  0.00    -0.240 NA
HETATM    5  C   UNK     0     -60.895  46.014  54.184  0.00  0.00     0.042 A 
HETATM    6  C   UNK     0     -60.238  47.400  54.045  0.00  0.00     0.064 A 
HETATM    7  C   UNK     0     -62.177  45.488  53.513  0.00  0.00     0.080 A 
HETATM    8  C   UNK     0     -62.569  44.041  53.864  0.00  0.00     0.001 A 
HETATM    9  C   UNK     0     -60.248  44.887  55.125  0.00  0.00     0.067 A 
HETATM   10  C   UNK     0     -58.889  47.755  54.837  0.00  0.00     0.052 A 
HETATM   11  C   UNK     0     -63.013  47.654  51.992  0.00  0.00     0.146 A 
HETATM   12  C   UNK     0     -58.899  45.208  55.930  0.00  0.00     0.114 A 
HETATM   13  C   UNK     0     -61.937  48.715  52.287  0.00  0.00     0.232 A 
HETATM   14  C   UNK     0     -58.215  46.651  55.786  0.00  0.00     0.058 A 
HETATM   15  C   UNK     0     -61.696  43.219  54.831  0.00  0.00     0.022 A 
HETATM   16  C   UNK     0     -63.835  43.415  53.248  0.00  0.00     0.028 A 
HETATM   17  C   UNK     0     -62.088  41.772  55.182  0.00  0.00     0.037 A 
HETATM   18  C   UNK     0     -64.226  41.967  53.600  0.00  0.00     0.005 A 
HETATM   19  C   UNK     0     -63.353  41.146  54.566  0.00  0.00     0.006 A 
ENDROOT
BRANCH  12  20
HETATM   20  N   UNK     0     -58.265  44.137  56.838  0.00  0.00    -0.117 N 
HETATM   21  O   UNK     0     -58.746  43.977  58.292  0.00  0.00    -0.532 OA
HETATM   22  O   UNK     0     -57.151  43.226  56.290  0.00  0.00    -0.532 OA
ENDBRANCH  12  20
TORSDOF 1
ENDMDL
MODEL 4
REMARK VINA RESULT:      -6.6      5.169      7.692
REMARK  1 active torsions:
REMARK  status: ('A' for Active; 'I' for Inactive)
REMARK    1  A    between atoms: N_7  and  C_15 
ROOT
HETATM    1 Cl   UNK     0     -41.324  26.945  67.423  0.00  0.00    -0.143 Cl
HETATM    2  O   UNK     0     -35.038  28.649  63.664  0.00  0.00    -0.168 OA
HETATM    3  N   UNK     0     -37.001  29.097  65.320  0.00  0.00    -0.223 NA
HETATM    4  N   UNK     0     -37.959  25.890  64.442  0.00  0.00    -0.240 NA
HETATM    5  C   UNK     0     -39.192  27.642  66.206  0.00  0.00     0.042 A 
HETATM    6  C   UNK     0     -38.281  28.883  66.150  0.00  0.00     0.064 A 
HETATM    7  C   UNK     0     -39.049  26.311  65.447  0.00  0.00     0.080 A 
HETATM    8  C   UNK     0     -40.140  25.261  65.728  0.00  0.00     0.001 A 
HETATM    9  C   UNK     0     -40.493  27.618  67.146  0.00  0.00     0.067 A 
HETATM   10  C   UNK     0     -38.607  30.185  67.029  0.00  0.00     0.052 A 
HETATM   11  C   UNK     0     -36.743  26.698  63.951  0.00  0.00     0.146 A 
HETATM   12  C   UNK     0     -40.848  28.903  68.037  0.00  0.00     0.114 A 
HETATM   13  C   UNK     0     -36.317  28.125  64.341  0.00  0.00     0.232 A 
HETATM   14  C   UNK     0     -39.899  30.194  67.979  0.00  0.00     0.058 A 
HETATM   15  C   UNK     0     -41.278  25.577  66.716  0.00  0.00     0.022 A 
HETATM   16  C   UNK     0     -40.092  23.893  65.020  0.00  0.00     0.028 A 
HETATM   17  C   UNK     0     -42.368  24.527  66.997  0.00  0.00     0.037 A 
HETATM   18  C   UNK     0     -41.184  22.843  65.302  0.00  0.00     0.005 A 
HETATM   19  C   UNK     0     -42.321  23.160  66.289  0.00  0.00     0.006 A 
ENDROOT
BRANCH  12  20
HETATM   20  N   UNK     0     -42.093  28.896  68.945  0.00  0.00    -0.117 N 
HETATM   21  O   UNK     0     -41.977  28.430  70.408  0.00  0.00    -0.532 OA
HETATM   22  O   UNK     0     -43.453  29.355  68.388  0.00  0.00    -0.532 OA
ENDBRANCH  12  20
TORSDOF 1
ENDMDL
MODEL 5
REMARK VINA RESULT:      -6.5     29.275     29.932
REMARK  1 active torsions:
REMARK  status: ('A' for Active; 'I' for Inactive)
REMARK    1  A    between atoms: N_7  and  C_15 
ROOT
HETATM    1 Cl   UNK     0     -61.292  45.146  52.064  0.00  0.00    -0.143 Cl
HETATM    2  O   UNK     0     -58.564  43.716  58.924  0.00  0.00    -0.168 OA
HETATM    3  N   UNK     0     -60.402  43.799  57.077  0.00  0.00    -0.223 NA
HETATM    4  N   UNK     0     -57.851  45.112  55.143  0.00  0.00    -0.240 NA
HETATM    5  C   UNK     0     -60.486  44.617  54.427  0.00  0.00     0.042 A 
HETATM    6  C   UNK     0     -61.091  44.040  55.721  0.00  0.00     0.064 A 
HETATM    7  C   UNK     0     -59.045  45.094  54.170  0.00  0.00     0.080 A 
HETATM    8  C   UNK     0     -58.759  45.622  52.752  0.00  0.00     0.001 A 
HETATM    9  C   UNK     0     -61.381  44.791  53.106  0.00  0.00     0.067 A 
HETATM   10  C   UNK     0     -62.632  43.598  55.784  0.00  0.00     0.052 A 
HETATM   11  C   UNK     0     -57.805  44.658  56.614  0.00  0.00     0.146 A 
HETATM   12  C   UNK     0     -62.925  44.358  53.135  0.00  0.00     0.114 A 
HETATM   13  C   UNK     0     -58.940  44.073  57.475  0.00  0.00     0.232 A 
HETATM   14  C   UNK     0     -63.554  43.758  54.482  0.00  0.00     0.058 A 
HETATM   15  C   UNK     0     -59.882  45.649  51.698  0.00  0.00     0.022 A 
HETATM   16  C   UNK     0     -57.349  46.124  52.387  0.00  0.00     0.028 A 
HETATM   17  C   UNK     0     -59.596  46.177  50.280  0.00  0.00     0.037 A 
HETATM   18  C   UNK     0     -57.064  46.653  50.969  0.00  0.00     0.005 A 
HETATM   19  C   UNK     0     -58.187  46.679  49.916  0.00  0.00     0.006 A 
ENDROOT
BRANCH  12  20
HETATM   20  N   UNK     0     -63.798  44.519  51.875  0.00  0.00    -0.117 N 
HETATM   21  O   UNK     0     -63.879  43.378  50.845  0.00  0.00    -0.532 OA
HETATM   22  O   UNK     0     -64.589  45.820  51.649  0.00  0.00    -0.532 OA
ENDBRANCH  12  20
TORSDOF 1
ENDMDL
MODEL 6
REMARK VINA RESULT:      -6.4      2.553      7.211
REMARK  1 active torsions:
REMARK  status: ('A' for Active; 'I' for Inactive)
REMARK    1  A    between atoms: N_7  and  C_15 
ROOT
HETATM    1 Cl   UNK     0     -43.550  26.092  68.698  0.00  0.00    -0.143 Cl
HETATM    2  O   UNK     0     -47.929  21.563  72.805  0.00  0.00    -0.168 OA
HETATM    3  N   UNK     0     -46.917  23.852  72.073  0.00  0.00    -0.223 NA
HETATM    4  N   UNK     0     -45.181  21.913  69.793  0.00  0.00    -0.240 NA
HETATM    5  C   UNK     0     -45.078  24.662  70.158  0.00  0.00     0.042 A 
HETATM    6  C   UNK     0     -46.073  24.892  71.311  0.00  0.00     0.064 A 
HETATM    7  C   UNK     0     -44.681  23.337  69.482  0.00  0.00     0.080 A 
HETATM    8  C   UNK     0     -43.648  23.450  68.346  0.00  0.00     0.001 A 
HETATM    9  C   UNK     0     -44.292  25.892  69.493  0.00  0.00     0.067 A 
HETATM   10  C   UNK     0     -46.350  26.367  71.879  0.00  0.00     0.052 A 
HETATM   11  C   UNK     0     -46.201  21.464  70.855  0.00  0.00     0.146 A 
HETATM   12  C   UNK     0     -44.545  27.380  70.035  0.00  0.00     0.114 A 
HETATM   13  C   UNK     0     -46.973  22.327  71.870  0.00  0.00     0.232 A 
HETATM   14  C   UNK     0     -45.581  27.618  71.236  0.00  0.00     0.058 A 
HETATM   15  C   UNK     0     -43.082  24.827  67.953  0.00  0.00     0.022 A 
HETATM   16  C   UNK     0     -43.181  22.185  67.602  0.00  0.00     0.028 A 
HETATM   17  C   UNK     0     -42.049  24.940  66.817  0.00  0.00     0.037 A 
HETATM   18  C   UNK     0     -42.147  22.298  66.465  0.00  0.00     0.005 A 
HETATM   19  C   UNK     0     -41.582  23.675  66.074  0.00  0.00     0.006 A 
ENDROOT
BRANCH  12  20
HETATM   20  N   UNK     0     -43.797  28.572  69.407  0.00  0.00    -0.117 N 
HETATM   21  O   UNK     0     -42.356  28.894  69.845  0.00  0.00    -0.532 OA
HETATM   22  O   UNK     0     -44.492  29.440  68.342  0.00  0.00    -0.532 OA
ENDBRANCH  12  20
TORSDOF 1
ENDMDL
MODEL 7
REMARK VINA RESULT:      -6.3     31.360     32.723
REMARK  1 active torsions:
REMARK  status: ('A' for Active; 'I' for Inactive)
REMARK    1  A    between atoms: N_7  and  C_15 
ROOT
HETATM    1 Cl   UNK     0     -27.650  39.263  95.475  0.00  0.00    -0.143 Cl
HETATM    2  O   UNK     0     -22.773  43.740  91.909  0.00  0.00    -0.168 OA
HETATM    3  N   UNK     0     -23.484  41.696  93.363  0.00  0.00    -0.223 NA
HETATM    4  N   UNK     0     -26.670  42.956  92.883  0.00  0.00    -0.240 NA
HETATM    5  C   UNK     0     -25.897  40.703  94.307  0.00  0.00     0.042 A 
HETATM    6  C   UNK     0     -24.367  40.697  94.135  0.00  0.00     0.064 A 
HETATM    7  C   UNK     0     -26.922  41.708  93.750  0.00  0.00     0.080 A 
HETATM    8  C   UNK     0     -28.394  41.428  94.106  0.00  0.00     0.001 A 
HETATM    9  C   UNK     0     -26.634  39.560  95.159  0.00  0.00     0.067 A 
HETATM   10  C   UNK     0     -23.467  39.550  94.803  0.00  0.00     0.052 A 
HETATM   11  C   UNK     0     -25.331  43.507  92.359  0.00  0.00     0.146 A 
HETATM   12  C   UNK     0     -25.765  38.398  95.840  0.00  0.00     0.114 A 
HETATM   13  C   UNK     0     -23.913  42.946  92.573  0.00  0.00     0.232 A 
HETATM   14  C   UNK     0     -24.171  38.392  95.661  0.00  0.00     0.058 A 
HETATM   15  C   UNK     0     -28.759  40.206  94.969  0.00  0.00     0.022 A 
HETATM   16  C   UNK     0     -29.502  42.371  93.600  0.00  0.00     0.028 A 
HETATM   17  C   UNK     0     -30.230  39.926  95.326  0.00  0.00     0.037 A 
HETATM   18  C   UNK     0     -30.974  42.091  93.957  0.00  0.00     0.005 A 
HETATM   19  C   UNK     0     -31.337  40.869  94.820  0.00  0.00     0.006 A 
ENDROOT
BRANCH  12  20
HETATM   20  N   UNK     0     -26.457  37.293  96.662  0.00  0.00    -0.117 N 
HETATM   21  O   UNK     0     -26.744  35.923  96.021  0.00  0.00    -0.532 OA
HETATM   22  O   UNK     0     -26.862  37.560  98.123  0.00  0.00    -0.532 OA
ENDBRANCH  12  20
TORSDOF 1
ENDMDL
MODEL 8
REMARK VINA RESULT:      -6.3     29.823     30.213
REMARK  1 active torsions:
REMARK  status: ('A' for Active; 'I' for Inactive)
REMARK    1  A    between atoms: N_7  and  C_15 
ROOT
HETATM    1 Cl   UNK     0     -61.352  42.715  53.881  0.00  0.00    -0.143 Cl
HETATM    2  O   UNK     0     -63.428  49.855  52.759  0.00  0.00    -0.168 OA
HETATM    3  N   UNK     0     -63.738  47.266  52.726  0.00  0.00    -0.223 NA
HETATM    4  N   UNK     0     -60.541  47.258  54.050  0.00  0.00    -0.240 NA
HETATM    5  C   UNK     0     -62.173  45.093  53.454  0.00  0.00     0.042 A 
HETATM    6  C   UNK     0     -63.445  45.764  52.902  0.00  0.00     0.064 A 
HETATM    7  C   UNK     0     -60.881  45.757  53.964  0.00  0.00     0.080 A 
HETATM    8  C   UNK     0     -59.783  44.795  54.454  0.00  0.00     0.001 A 
HETATM    9  C   UNK     0     -62.064  43.496  53.558  0.00  0.00     0.067 A 
HETATM   10  C   UNK     0     -64.695  44.885  52.417  0.00  0.00     0.052 A 
HETATM   11  C   UNK     0     -61.410  48.463  53.646  0.00  0.00     0.146 A 
HETATM   12  C   UNK     0     -63.296  42.587  53.081  0.00  0.00     0.114 A 
HETATM   13  C   UNK     0     -62.832  48.467  53.057  0.00  0.00     0.232 A 
HETATM   14  C   UNK     0     -64.620  43.286  52.507  0.00  0.00     0.058 A 
HETATM   15  C   UNK     0     -60.018  43.273  54.413  0.00  0.00     0.022 A 
HETATM   16  C   UNK     0     -58.450  45.354  54.986  0.00  0.00     0.028 A 
HETATM   17  C   UNK     0     -58.921  42.311  54.903  0.00  0.00     0.037 A 
HETATM   18  C   UNK     0     -57.352  44.390  55.476  0.00  0.00     0.005 A 
HETATM   19  C   UNK     0     -57.588  42.870  55.434  0.00  0.00     0.006 A 
ENDROOT
BRANCH  12  20
HETATM   20  N   UNK     0     -63.207  41.051  53.174  0.00  0.00    -0.117 N 
HETATM   21  O   UNK     0     -63.742  40.324  54.421  0.00  0.00    -0.532 OA
HETATM   22  O   UNK     0     -62.585  40.245  52.019  0.00  0.00    -0.532 OA
ENDBRANCH  12  20
TORSDOF 1
ENDMDL
MODEL 9
REMARK VINA RESULT:      -6.1     29.602     30.138
REMARK  1 active torsions:
REMARK  status: ('A' for Active; 'I' for Inactive)
REMARK    1  A    between atoms: N_7  and  C_15 
ROOT
HETATM    1 Cl   UNK     0     -60.634  46.039  54.546  0.00  0.00    -0.143 Cl
HETATM    2  O   UNK     0     -62.318  39.296  51.674  0.00  0.00    -0.168 OA
HETATM    3  N   UNK     0     -60.985  40.968  53.167  0.00  0.00    -0.223 NA
HETATM    4  N   UNK     0     -63.154  43.300  51.814  0.00  0.00    -0.240 NA
HETATM    5  C   UNK     0     -61.107  43.699  53.645  0.00  0.00     0.042 A 
HETATM    6  C   UNK     0     -60.533  42.282  53.832  0.00  0.00     0.064 A 
HETATM    7  C   UNK     0     -62.273  44.152  52.747  0.00  0.00     0.080 A 
HETATM    8  C   UNK     0     -62.602  45.656  52.787  0.00  0.00     0.001 A 
HETATM    9  C   UNK     0     -60.489  44.948  54.439  0.00  0.00     0.067 A 
HETATM   10  C   UNK     0     -59.302  42.016  54.825  0.00  0.00     0.052 A 
HETATM   11  C   UNK     0     -63.086  41.784  51.548  0.00  0.00     0.146 A 
HETATM   12  C   UNK     0     -59.257  44.719  55.440  0.00  0.00     0.114 A 
HETATM   13  C   UNK     0     -62.121  40.747  52.151  0.00  0.00     0.232 A 
HETATM   14  C   UNK     0     -58.660  43.243  55.635  0.00  0.00     0.058 A 
HETATM   15  C   UNK     0     -61.782  46.600  53.687  0.00  0.00     0.022 A 
HETATM   16  C   UNK     0     -63.750  46.216  51.926  0.00  0.00     0.028 A 
HETATM   17  C   UNK     0     -62.111  48.104  53.727  0.00  0.00     0.037 A 
HETATM   18  C   UNK     0     -64.078  47.721  51.967  0.00  0.00     0.005 A 
HETATM   19  C   UNK     0     -63.259  48.663  52.867  0.00  0.00     0.006 A 
ENDROOT
BRANCH  12  20
HETATM   20  N   UNK     0     -58.652  45.908  56.210  0.00  0.00    -0.117 N 
HETATM   21  O   UNK     0     -59.195  46.281  57.601  0.00  0.00    -0.532 OA
HETATM   22  O   UNK     0     -57.504  46.723  55.587  0.00  0.00    -0.532 OA
ENDBRANCH  12  20
TORSDOF 1
ENDMDL
MODEL 10
REMARK VINA RESULT:      -6.0     32.281     34.545
REMARK  1 active torsions:
REMARK  status: ('A' for Active; 'I' for Inactive)
REMARK    1  A    between atoms: N_7  and  C_15 
ROOT
HETATM    1 Cl   UNK     0     -15.603  36.936  84.419  0.00  0.00    -0.143 Cl
HETATM    2  O   UNK     0      -8.678  36.014  81.638  0.00  0.00    -0.168 OA
HETATM    3  N   UNK     0     -10.433  36.648  83.459  0.00  0.00    -0.223 NA
HETATM    4  N   UNK     0     -12.714  35.748  81.019  0.00  0.00    -0.240 NA
HETATM    5  C   UNK     0     -13.205  36.665  83.592  0.00  0.00     0.042 A 
HETATM    6  C   UNK     0     -11.787  36.882  84.155  0.00  0.00     0.064 A 
HETATM    7  C   UNK     0     -13.617  36.161  82.197  0.00  0.00     0.080 A 
HETATM    8  C   UNK     0     -15.133  36.054  81.946  0.00  0.00     0.001 A 
HETATM    9  C   UNK     0     -14.501  36.972  84.486  0.00  0.00     0.067 A 
HETATM   10  C   UNK     0     -11.568  37.420  85.650  0.00  0.00     0.052 A 
HETATM   11  C   UNK     0     -11.176  35.739  80.945  0.00  0.00     0.146 A 
HETATM   12  C   UNK     0     -14.318  37.511  85.985  0.00  0.00     0.114 A 
HETATM   13  C   UNK     0     -10.161  36.139  82.032  0.00  0.00     0.232 A 
HETATM   14  C   UNK     0     -12.842  37.737  86.571  0.00  0.00     0.058 A 
HETATM   15  C   UNK     0     -16.127  36.442  83.057  0.00  0.00     0.022 A 
HETATM   16  C   UNK     0     -15.655  35.561  80.584  0.00  0.00     0.028 A 
HETATM   17  C   UNK     0     -17.642  36.335  82.806  0.00  0.00     0.037 A 
HETATM   18  C   UNK     0     -17.171  35.454  80.333  0.00  0.00     0.005 A 
HETATM   19  C   UNK     0     -18.164  35.842  81.444  0.00  0.00     0.006 A 
ENDROOT
BRANCH  12  20
HETATM   20  N   UNK     0     -15.552  37.810  86.858  0.00  0.00    -0.117 N 
HETATM   21  O   UNK     0     -16.367  39.095  86.624  0.00  0.00    -0.532 OA
HETATM   22  O   UNK     0     -15.971  36.823  87.963  0.00  0.00    -0.532 OA
ENDBRANCH  12  20
TORSDOF 1
ENDMDL
