MODEL 1
REMARK VINA RESULT:      -7.4      0.000      0.000
REMARK  7 active torsions:
REMARK  status: ('A' for Active; 'I' for Inactive)
REMARK    1  A    between atoms: N_3  and  C_7 
REMARK    2  A    between atoms: N_4  and  C_10 
REMARK    3  A    between atoms: C_7  and  C_11 
REMARK    4  A    between atoms: C_7  and  C_12 
REMARK    5  A    between atoms: C_10  and  C_13 
REMARK    6  A    between atoms: C_13  and  C_22 
REMARK    7  A    between atoms: C_22  and  C_25 
ROOT
HETATM    1  N   UNK     0     -43.732  48.654  70.280  0.00  0.00    -0.345 N 
HETATM    2  N   UNK     0     -46.395  49.988  69.496  0.00  0.00    -0.365 N 
HETATM    3  C   UNK     0     -44.004  49.023  68.810  0.00  0.00     0.125 A 
HETATM    4  C   UNK     0     -44.791  48.952  71.357  0.00  0.00     0.125 A 
HETATM    5  C   UNK     0     -45.335  49.690  68.418  0.00  0.00     0.122 A 
HETATM    6  C   UNK     0     -46.122  49.619  70.965  0.00  0.00     0.122 A 
ENDROOT
BRANCH   1   7
HETATM    7  C   UNK     0     -42.400  47.987  70.673  0.00  0.00     0.040 C 
BRANCH   7   8
HETATM    8  C   UNK     0     -42.285  46.451  70.692  0.00  0.00    -0.029 A 
HETATM    9  C   UNK     0     -42.477  45.681  72.012  0.00  0.00     0.030 A 
HETATM   10  C   UNK     0     -42.362  44.146  72.031  0.00  0.00     0.056 A 
HETATM   11  C   UNK     0     -42.054  43.380  70.731  0.00  0.00     0.096 A 
HETATM   12  F   UNK     0     -41.938  41.844  70.750  0.00  0.00    -0.213 F 
HETATM   13  C   UNK     0     -41.861  44.150  69.411  0.00  0.00     0.056 A 
HETATM   14  C   UNK     0     -41.977  45.686  69.392  0.00  0.00     0.030 A 
ENDBRANCH   7   8
BRANCH   7  15
HETATM   15  C   UNK     0     -41.185  48.855  71.046  0.00  0.00    -0.029 A 
HETATM   16  C   UNK     0     -40.062  48.271  71.925  0.00  0.00     0.030 A 
HETATM   17  C   UNK     0     -38.846  49.139  72.298  0.00  0.00     0.056 A 
HETATM   18  C   UNK     0     -38.752  50.591  71.793  0.00  0.00     0.096 A 
HETATM   19  F   UNK     0     -37.536  51.459  72.167  0.00  0.00    -0.213 F 
HETATM   20  C   UNK     0     -39.875  51.174  70.915  0.00  0.00     0.056 A 
HETATM   21  C   UNK     0     -41.091  50.306  70.541  0.00  0.00     0.030 A 
ENDBRANCH   7  15
ENDBRANCH   1   7
BRANCH   2  22
HETATM   22  C   UNK     0     -47.726  50.655  69.103  0.00  0.00     0.097 C 
BRANCH  22  23
HETATM   23  C   UNK     0     -47.722  51.976  68.312  0.00  0.00     0.024 C 
BRANCH  23  24
HETATM   24  C   UNK     0     -47.625  51.953  66.776  0.00  0.00     0.002 C 
BRANCH  24  25
HETATM   25  C   UNK     0     -48.891  51.736  65.927  0.00  0.00     0.000 A 
HETATM   26  C   UNK     0     -49.587  52.938  65.261  0.00  0.00     0.000 A 
HETATM   27  C   UNK     0     -50.854  52.721  64.412  0.00  0.00     0.000 A 
HETATM   28  C   UNK     0     -51.425  51.302  64.230  0.00  0.00     0.000 A 
HETATM   29  C   UNK     0     -50.729  50.100  64.895  0.00  0.00     0.000 A 
HETATM   30  C   UNK     0     -49.463  50.317  65.744  0.00  0.00     0.000 A 
ENDBRANCH  24  25
ENDBRANCH  23  24
ENDBRANCH  22  23
ENDBRANCH   2  22
TORSDOF 7
ENDMDL
MODEL 2
REMARK VINA RESULT:      -6.8      3.925     10.187
REMARK  7 active torsions:
REMARK  status: ('A' for Active; 'I' for Inactive)
REMARK    1  A    between atoms: N_3  and  C_7 
REMARK    2  A    between atoms: N_4  and  C_10 
REMARK    3  A    between atoms: C_7  and  C_11 
REMARK    4  A    between atoms: C_7  and  C_12 
REMARK    5  A    between atoms: C_10  and  C_13 
REMARK    6  A    between atoms: C_13  and  C_22 
REMARK    7  A    between atoms: C_22  and  C_25 
ROOT
HETATM    1  N   UNK     0     -45.834  49.785  68.822  0.00  0.00    -0.345 N 
HETATM    2  N   UNK     0     -43.665  47.964  70.033  0.00  0.00    -0.365 N 
HETATM    3  C   UNK     0     -46.098  48.276  68.985  0.00  0.00     0.125 A 
HETATM    4  C   UNK     0     -44.486  50.382  69.265  0.00  0.00     0.125 A 
HETATM    5  C   UNK     0     -45.014  47.366  69.590  0.00  0.00     0.122 A 
HETATM    6  C   UNK     0     -43.402  49.472  69.870  0.00  0.00     0.122 A 
ENDROOT
BRANCH   1   7
HETATM    7  C   UNK     0     -46.919  50.695  68.216  0.00  0.00     0.040 C 
BRANCH   7   8
HETATM    8  C   UNK     0     -47.375  51.958  68.972  0.00  0.00    -0.029 A 
HETATM    9  C   UNK     0     -47.967  51.835  70.388  0.00  0.00     0.030 A 
HETATM   10  C   UNK     0     -48.423  53.096  71.144  0.00  0.00     0.056 A 
HETATM   11  C   UNK     0     -48.286  54.481  70.484  0.00  0.00     0.096 A 
HETATM   12  F   UNK     0     -48.742  55.744  71.240  0.00  0.00    -0.213 F 
HETATM   13  C   UNK     0     -47.693  54.604  69.068  0.00  0.00     0.056 A 
HETATM   14  C   UNK     0     -47.237  53.342  68.312  0.00  0.00     0.030 A 
ENDBRANCH   7   8
BRANCH   7  15
HETATM   15  C   UNK     0     -47.547  50.344  66.856  0.00  0.00    -0.029 A 
HETATM   16  C   UNK     0     -49.078  50.368  66.686  0.00  0.00     0.030 A 
HETATM   17  C   UNK     0     -49.708  50.016  65.325  0.00  0.00     0.056 A 
HETATM   18  C   UNK     0     -48.806  49.641  64.133  0.00  0.00     0.096 A 
HETATM   19  F   UNK     0     -49.436  49.290  62.772  0.00  0.00    -0.213 F 
HETATM   20  C   UNK     0     -47.276  49.618  64.303  0.00  0.00     0.056 A 
HETATM   21  C   UNK     0     -46.646  49.969  65.665  0.00  0.00     0.030 A 
ENDBRANCH   7  15
ENDBRANCH   1   7
BRANCH   2  22
HETATM   22  C   UNK     0     -42.581  47.054  70.638  0.00  0.00     0.097 C 
BRANCH  22  23
HETATM   23  C   UNK     0     -42.984  45.850  71.510  0.00  0.00     0.024 C 
BRANCH  23  24
HETATM   24  C   UNK     0     -42.092  44.596  71.551  0.00  0.00     0.002 C 
BRANCH  24  25
HETATM   25  C   UNK     0     -42.644  43.243  71.062  0.00  0.00     0.000 A 
HETATM   26  C   UNK     0     -42.940  43.027  69.567  0.00  0.00     0.000 A 
HETATM   27  C   UNK     0     -43.491  41.674  69.078  0.00  0.00     0.000 A 
HETATM   28  C   UNK     0     -43.747  40.537  70.086  0.00  0.00     0.000 A 
HETATM   29  C   UNK     0     -43.451  40.753  71.581  0.00  0.00     0.000 A 
HETATM   30  C   UNK     0     -42.900  42.106  72.070  0.00  0.00     0.000 A 
ENDBRANCH  24  25
ENDBRANCH  23  24
ENDBRANCH  22  23
ENDBRANCH   2  22
TORSDOF 7
ENDMDL
MODEL 3
REMARK VINA RESULT:      -6.7      3.917      9.327
REMARK  7 active torsions:
REMARK  status: ('A' for Active; 'I' for Inactive)
REMARK    1  A    between atoms: N_3  and  C_7 
REMARK    2  A    between atoms: N_4  and  C_10 
REMARK    3  A    between atoms: C_7  and  C_11 
REMARK    4  A    between atoms: C_7  and  C_12 
REMARK    5  A    between atoms: C_10  and  C_13 
REMARK    6  A    between atoms: C_13  and  C_22 
REMARK    7  A    between atoms: C_22  and  C_25 
ROOT
HETATM    1  N   UNK     0     -45.840  50.278  68.718  0.00  0.00    -0.345 N 
HETATM    2  N   UNK     0     -43.535  48.646  69.946  0.00  0.00    -0.365 N 
HETATM    3  C   UNK     0     -46.147  49.020  69.553  0.00  0.00     0.125 A 
HETATM    4  C   UNK     0     -44.382  50.719  68.498  0.00  0.00     0.125 A 
HETATM    5  C   UNK     0     -44.994  48.204  70.167  0.00  0.00     0.122 A 
HETATM    6  C   UNK     0     -43.229  49.903  69.112  0.00  0.00     0.122 A 
ENDROOT
BRANCH   1   7
HETATM    7  C   UNK     0     -46.993  51.094  68.104  0.00  0.00     0.040 C 
BRANCH   7   8
HETATM    8  C   UNK     0     -47.613  50.661  66.762  0.00  0.00    -0.029 A 
HETATM    9  C   UNK     0     -46.705  50.379  65.550  0.00  0.00     0.030 A 
HETATM   10  C   UNK     0     -47.324  49.946  64.208  0.00  0.00     0.056 A 
HETATM   11  C   UNK     0     -48.851  49.796  64.078  0.00  0.00     0.096 A 
HETATM   12  F   UNK     0     -49.471  49.364  62.736  0.00  0.00    -0.213 F 
HETATM   13  C   UNK     0     -49.759  50.079  65.289  0.00  0.00     0.056 A 
HETATM   14  C   UNK     0     -49.139  50.512  66.632  0.00  0.00     0.030 A 
ENDBRANCH   7   8
BRANCH   7  15
HETATM   15  C   UNK     0     -47.526  52.342  68.831  0.00  0.00    -0.029 A 
HETATM   16  C   UNK     0     -47.704  53.664  68.061  0.00  0.00     0.030 A 
HETATM   17  C   UNK     0     -48.238  54.913  68.788  0.00  0.00     0.056 A 
HETATM   18  C   UNK     0     -48.593  54.839  70.285  0.00  0.00     0.096 A 
HETATM   19  F   UNK     0     -49.126  56.088  71.012  0.00  0.00    -0.213 F 
HETATM   20  C   UNK     0     -48.414  53.517  71.055  0.00  0.00     0.056 A 
HETATM   21  C   UNK     0     -47.881  52.268  70.328  0.00  0.00     0.030 A 
ENDBRANCH   7  15
ENDBRANCH   1   7
BRANCH   2  22
HETATM   22  C   UNK     0     -42.382  47.830  70.561  0.00  0.00     0.097 C 
BRANCH  22  23
HETATM   23  C   UNK     0     -42.500  46.300  70.679  0.00  0.00     0.024 C 
BRANCH  23  24
HETATM   24  C   UNK     0     -42.715  45.444  69.417  0.00  0.00     0.002 C 
BRANCH  24  25
HETATM   25  C   UNK     0     -43.228  43.998  69.547  0.00  0.00     0.000 A 
HETATM   26  C   UNK     0     -44.418  43.683  70.472  0.00  0.00     0.000 A 
HETATM   27  C   UNK     0     -44.932  42.236  70.601  0.00  0.00     0.000 A 
HETATM   28  C   UNK     0     -44.255  41.105  69.805  0.00  0.00     0.000 A 
HETATM   29  C   UNK     0     -43.065  41.419  68.879  0.00  0.00     0.000 A 
HETATM   30  C   UNK     0     -42.552  42.866  68.750  0.00  0.00     0.000 A 
ENDBRANCH  24  25
ENDBRANCH  23  24
ENDBRANCH  22  23
ENDBRANCH   2  22
TORSDOF 7
ENDMDL
MODEL 4
REMARK VINA RESULT:      -6.6     21.482     26.549
REMARK  7 active torsions:
REMARK  status: ('A' for Active; 'I' for Inactive)
REMARK    1  A    between atoms: N_3  and  C_7 
REMARK    2  A    between atoms: N_4  and  C_10 
REMARK    3  A    between atoms: C_7  and  C_11 
REMARK    4  A    between atoms: C_7  and  C_12 
REMARK    5  A    between atoms: C_10  and  C_13 
REMARK    6  A    between atoms: C_13  and  C_22 
REMARK    7  A    between atoms: C_22  and  C_25 
ROOT
HETATM    1  N   UNK     0     -42.810  22.976  66.746  0.00  0.00    -0.345 N 
HETATM    2  N   UNK     0     -44.701  24.415  68.705  0.00  0.00    -0.365 N 
HETATM    3  C   UNK     0     -42.514  24.424  67.178  0.00  0.00     0.125 A 
HETATM    4  C   UNK     0     -44.051  22.248  67.293  0.00  0.00     0.125 A 
HETATM    5  C   UNK     0     -43.459  25.143  68.158  0.00  0.00     0.122 A 
HETATM    6  C   UNK     0     -44.997  22.967  68.272  0.00  0.00     0.122 A 
ENDROOT
BRANCH   1   7
HETATM    7  C   UNK     0     -41.865  22.256  65.766  0.00  0.00     0.040 C 
BRANCH   7   8
HETATM    8  C   UNK     0     -41.116  23.060  64.686  0.00  0.00    -0.029 A 
HETATM    9  C   UNK     0     -41.807  23.379  63.347  0.00  0.00     0.030 A 
HETATM   10  C   UNK     0     -41.059  24.183  62.268  0.00  0.00     0.056 A 
HETATM   11  C   UNK     0     -39.621  24.669  62.528  0.00  0.00     0.096 A 
HETATM   12  F   UNK     0     -38.873  25.474  61.448  0.00  0.00    -0.213 F 
HETATM   13  C   UNK     0     -38.931  24.350  63.867  0.00  0.00     0.056 A 
HETATM   14  C   UNK     0     -39.679  23.546  64.946  0.00  0.00     0.030 A 
ENDBRANCH   7   8
BRANCH   7  15
HETATM   15  C   UNK     0     -41.667  20.732  65.865  0.00  0.00    -0.029 A 
HETATM   16  C   UNK     0     -40.650  20.151  66.865  0.00  0.00     0.030 A 
HETATM   17  C   UNK     0     -40.452  18.627  66.965  0.00  0.00     0.056 A 
HETATM   18  C   UNK     0     -41.271  17.684  66.065  0.00  0.00     0.096 A 
HETATM   19  F   UNK     0     -41.073  16.160  66.165  0.00  0.00    -0.213 F 
HETATM   20  C   UNK     0     -42.288  18.265  65.065  0.00  0.00     0.056 A 
HETATM   21  C   UNK     0     -42.486  19.789  64.965  0.00  0.00     0.030 A 
ENDBRANCH   7  15
ENDBRANCH   1   7
BRANCH   2  22
HETATM   22  C   UNK     0     -45.646  25.135  69.685  0.00  0.00     0.097 C 
BRANCH  22  23
HETATM   23  C   UNK     0     -45.396  25.048  71.201  0.00  0.00     0.024 C 
BRANCH  23  24
HETATM   24  C   UNK     0     -46.119  26.013  72.158  0.00  0.00     0.002 C 
BRANCH  24  25
HETATM   25  C   UNK     0     -45.343  27.165  72.823  0.00  0.00     0.000 A 
HETATM   26  C   UNK     0     -46.057  28.107  73.809  0.00  0.00     0.000 A 
HETATM   27  C   UNK     0     -45.281  29.259  74.474  0.00  0.00     0.000 A 
HETATM   28  C   UNK     0     -43.789  29.469  74.152  0.00  0.00     0.000 A 
HETATM   29  C   UNK     0     -43.074  28.527  73.166  0.00  0.00     0.000 A 
HETATM   30  C   UNK     0     -43.851  27.375  72.501  0.00  0.00     0.000 A 
ENDBRANCH  24  25
ENDBRANCH  23  24
ENDBRANCH  22  23
ENDBRANCH   2  22
TORSDOF 7
ENDMDL
MODEL 5
REMARK VINA RESULT:      -6.6     39.539     44.147
REMARK  7 active torsions:
REMARK  status: ('A' for Active; 'I' for Inactive)
REMARK    1  A    between atoms: N_3  and  C_7 
REMARK    2  A    between atoms: N_4  and  C_10 
REMARK    3  A    between atoms: C_7  and  C_11 
REMARK    4  A    between atoms: C_7  and  C_12 
REMARK    5  A    between atoms: C_10  and  C_13 
REMARK    6  A    between atoms: C_13  and  C_22 
REMARK    7  A    between atoms: C_22  and  C_25 
ROOT
HETATM    1  N   UNK     0     -43.103   4.379  74.506  0.00  0.00    -0.345 N 
HETATM    2  N   UNK     0     -45.648   5.833  75.451  0.00  0.00    -0.365 N 
HETATM    3  C   UNK     0     -44.419   3.596  74.677  0.00  0.00     0.125 A 
HETATM    4  C   UNK     0     -43.061   5.888  74.807  0.00  0.00     0.125 A 
HETATM    5  C   UNK     0     -45.691   4.323  75.150  0.00  0.00     0.122 A 
HETATM    6  C   UNK     0     -44.333   6.615  75.280  0.00  0.00     0.122 A 
ENDROOT
BRANCH   1   7
HETATM    7  C   UNK     0     -41.831   3.652  74.033  0.00  0.00     0.040 C 
BRANCH   7   8
HETATM    8  C   UNK     0     -41.185   2.573  74.922  0.00  0.00    -0.029 A 
HETATM    9  C   UNK     0     -40.485   2.975  76.234  0.00  0.00     0.030 A 
HETATM   10  C   UNK     0     -39.839   1.897  77.123  0.00  0.00     0.056 A 
HETATM   11  C   UNK     0     -39.893   0.416  76.701  0.00  0.00     0.096 A 
HETATM   12  F   UNK     0     -39.246  -0.662  77.591  0.00  0.00    -0.213 F 
HETATM   13  C   UNK     0     -40.593   0.015  75.389  0.00  0.00     0.056 A 
HETATM   14  C   UNK     0     -41.239   1.093  74.500  0.00  0.00     0.030 A 
ENDBRANCH   7   8
BRANCH   7  15
HETATM   15  C   UNK     0     -41.205   4.003  72.671  0.00  0.00    -0.029 A 
HETATM   16  C   UNK     0     -39.676   3.948  72.489  0.00  0.00     0.030 A 
HETATM   17  C   UNK     0     -39.049   4.299  71.127  0.00  0.00     0.056 A 
HETATM   18  C   UNK     0     -39.950   4.705  69.946  0.00  0.00     0.096 A 
HETATM   19  F   UNK     0     -39.323   5.056  68.584  0.00  0.00    -0.213 F 
HETATM   20  C   UNK     0     -41.479   4.760  70.128  0.00  0.00     0.056 A 
HETATM   21  C   UNK     0     -42.106   4.409  71.490  0.00  0.00     0.030 A 
ENDBRANCH   7  15
ENDBRANCH   1   7
BRANCH   2  22
HETATM   22  C   UNK     0     -46.921   6.560  75.924  0.00  0.00     0.097 C 
BRANCH  22  23
HETATM   23  C   UNK     0     -47.160   8.029  75.531  0.00  0.00     0.024 C 
BRANCH  23  24
HETATM   24  C   UNK     0     -47.690   9.030  76.574  0.00  0.00     0.002 C 
BRANCH  24  25
HETATM   25  C   UNK     0     -48.988   9.813  76.299  0.00  0.00     0.000 A 
HETATM   26  C   UNK     0     -49.164  10.567  74.968  0.00  0.00     0.000 A 
HETATM   27  C   UNK     0     -50.462  11.351  74.693  0.00  0.00     0.000 A 
HETATM   28  C   UNK     0     -51.582  11.380  75.749  0.00  0.00     0.000 A 
HETATM   29  C   UNK     0     -51.406  10.626  77.080  0.00  0.00     0.000 A 
HETATM   30  C   UNK     0     -50.108   9.843  77.355  0.00  0.00     0.000 A 
ENDBRANCH  24  25
ENDBRANCH  23  24
ENDBRANCH  22  23
ENDBRANCH   2  22
TORSDOF 7
ENDMDL
MODEL 6
REMARK VINA RESULT:      -6.6     20.114     23.429
REMARK  7 active torsions:
REMARK  status: ('A' for Active; 'I' for Inactive)
REMARK    1  A    between atoms: N_3  and  C_7 
REMARK    2  A    between atoms: N_4  and  C_10 
REMARK    3  A    between atoms: C_7  and  C_11 
REMARK    4  A    between atoms: C_7  and  C_12 
REMARK    5  A    between atoms: C_10  and  C_13 
REMARK    6  A    between atoms: C_13  and  C_22 
REMARK    7  A    between atoms: C_22  and  C_25 
ROOT
HETATM    1  N   UNK     0     -58.111  45.998  51.573  0.00  0.00    -0.345 N 
HETATM    2  N   UNK     0     -57.168  45.282  48.730  0.00  0.00    -0.365 N 
HETATM    3  C   UNK     0     -56.616  46.079  51.215  0.00  0.00     0.125 A 
HETATM    4  C   UNK     0     -59.135  45.559  50.510  0.00  0.00     0.125 A 
HETATM    5  C   UNK     0     -56.144  45.721  49.793  0.00  0.00     0.122 A 
HETATM    6  C   UNK     0     -58.663  45.201  49.088  0.00  0.00     0.122 A 
ENDROOT
BRANCH   1   7
HETATM    7  C   UNK     0     -58.583  46.355  52.995  0.00  0.00     0.040 C 
BRANCH   7   8
HETATM    8  C   UNK     0     -59.386  45.332  53.820  0.00  0.00    -0.029 A 
HETATM    9  C   UNK     0     -58.668  44.139  54.477  0.00  0.00     0.030 A 
HETATM   10  C   UNK     0     -59.470  43.117  55.302  0.00  0.00     0.056 A 
HETATM   11  C   UNK     0     -60.992  43.286  55.469  0.00  0.00     0.096 A 
HETATM   12  F   UNK     0     -61.795  42.263  56.294  0.00  0.00    -0.213 F 
HETATM   13  C   UNK     0     -61.711  44.479  54.811  0.00  0.00     0.056 A 
HETATM   14  C   UNK     0     -60.907  45.502  53.986  0.00  0.00     0.030 A 
ENDBRANCH   7   8
BRANCH   7  15
HETATM   15  C   UNK     0     -58.252  47.735  53.591  0.00  0.00    -0.029 A 
HETATM   16  C   UNK     0     -57.932  47.868  55.092  0.00  0.00     0.030 A 
HETATM   17  C   UNK     0     -57.600  49.249  55.690  0.00  0.00     0.056 A 
HETATM   18  C   UNK     0     -57.589  50.496  54.787  0.00  0.00     0.096 A 
HETATM   19  F   UNK     0     -57.258  51.876  55.384  0.00  0.00    -0.213 F 
HETATM   20  C   UNK     0     -57.910  50.363  53.286  0.00  0.00     0.056 A 
HETATM   21  C   UNK     0     -58.241  48.982  52.688  0.00  0.00     0.030 A 
ENDBRANCH   7  15
ENDBRANCH   1   7
BRANCH   2  22
HETATM   22  C   UNK     0     -56.696  44.925  47.308  0.00  0.00     0.097 C 
BRANCH  22  23
HETATM   23  C   UNK     0     -56.422  43.457  46.934  0.00  0.00     0.024 C 
BRANCH  23  24
HETATM   24  C   UNK     0     -56.543  42.354  48.003  0.00  0.00     0.002 C 
BRANCH  24  25
HETATM   25  C   UNK     0     -55.274  41.756  48.639  0.00  0.00     0.000 A 
HETATM   26  C   UNK     0     -54.168  42.687  49.172  0.00  0.00     0.000 A 
HETATM   27  C   UNK     0     -52.899  42.089  49.808  0.00  0.00     0.000 A 
HETATM   28  C   UNK     0     -52.735  40.561  49.910  0.00  0.00     0.000 A 
HETATM   29  C   UNK     0     -53.841  39.630  49.377  0.00  0.00     0.000 A 
HETATM   30  C   UNK     0     -55.110  40.228  48.741  0.00  0.00     0.000 A 
ENDBRANCH  24  25
ENDBRANCH  23  24
ENDBRANCH  22  23
ENDBRANCH   2  22
TORSDOF 7
ENDMDL
MODEL 7
REMARK VINA RESULT:      -6.5     34.432     37.224
REMARK  7 active torsions:
REMARK  status: ('A' for Active; 'I' for Inactive)
REMARK    1  A    between atoms: N_3  and  C_7 
REMARK    2  A    between atoms: N_4  and  C_10 
REMARK    3  A    between atoms: C_7  and  C_11 
REMARK    4  A    between atoms: C_7  and  C_12 
REMARK    5  A    between atoms: C_10  and  C_13 
REMARK    6  A    between atoms: C_13  and  C_22 
REMARK    7  A    between atoms: C_22  and  C_25 
ROOT
HETATM    1  N   UNK     0     -62.918  43.406  98.978  0.00  0.00    -0.345 N 
HETATM    2  N   UNK     0     -63.499  42.746 101.930  0.00  0.00    -0.365 N 
HETATM    3  C   UNK     0     -64.352  43.061  99.422  0.00  0.00     0.125 A 
HETATM    4  C   UNK     0     -61.775  43.421 100.010  0.00  0.00     0.125 A 
HETATM    5  C   UNK     0     -64.642  42.731 100.898  0.00  0.00     0.122 A 
HETATM    6  C   UNK     0     -62.066  43.091 101.486  0.00  0.00     0.122 A 
ENDROOT
BRANCH   1   7
HETATM    7  C   UNK     0     -62.627  43.736  97.502  0.00  0.00     0.040 C 
BRANCH   7   8
HETATM    8  C   UNK     0     -61.226  43.476  96.916  0.00  0.00    -0.029 A 
HETATM    9  C   UNK     0     -60.687  42.037  96.821  0.00  0.00     0.030 A 
HETATM   10  C   UNK     0     -59.287  41.776  96.235  0.00  0.00     0.056 A 
HETATM   11  C   UNK     0     -58.426  42.956  95.745  0.00  0.00     0.096 A 
HETATM   12  F   UNK     0     -57.025  42.696  95.159  0.00  0.00    -0.213 F 
HETATM   13  C   UNK     0     -58.965  44.395  95.841  0.00  0.00     0.056 A 
HETATM   14  C   UNK     0     -60.366  44.655  96.427  0.00  0.00     0.030 A 
ENDBRANCH   7   8
BRANCH   7  15
HETATM   15  C   UNK     0     -63.736  44.326  96.612  0.00  0.00    -0.029 A 
HETATM   16  C   UNK     0     -64.545  43.406  95.678  0.00  0.00     0.030 A 
HETATM   17  C   UNK     0     -65.655  43.995  94.788  0.00  0.00     0.056 A 
HETATM   18  C   UNK     0     -65.956  45.505  94.831  0.00  0.00     0.096 A 
HETATM   19  F   UNK     0     -67.065  46.095  93.940  0.00  0.00    -0.213 F 
HETATM   20  C   UNK     0     -65.147  46.425  95.765  0.00  0.00     0.056 A 
HETATM   21  C   UNK     0     -64.037  45.835  96.655  0.00  0.00     0.030 A 
ENDBRANCH   7  15
ENDBRANCH   1   7
BRANCH   2  22
HETATM   22  C   UNK     0     -63.790  42.416 103.406  0.00  0.00     0.097 C 
BRANCH  22  23
HETATM   23  C   UNK     0     -62.880  41.437 104.169  0.00  0.00     0.024 C 
BRANCH  23  24
HETATM   24  C   UNK     0     -63.495  40.257 104.943  0.00  0.00     0.002 C 
BRANCH  24  25
HETATM   25  C   UNK     0     -62.582  39.254 105.673  0.00  0.00     0.000 A 
HETATM   26  C   UNK     0     -61.417  39.764 106.541  0.00  0.00     0.000 A 
HETATM   27  C   UNK     0     -60.504  38.762 107.271  0.00  0.00     0.000 A 
HETATM   28  C   UNK     0     -60.755  37.248 107.133  0.00  0.00     0.000 A 
HETATM   29  C   UNK     0     -61.920  36.738 106.265  0.00  0.00     0.000 A 
HETATM   30  C   UNK     0     -62.834  37.741 105.535  0.00  0.00     0.000 A 
ENDBRANCH  24  25
ENDBRANCH  23  24
ENDBRANCH  22  23
ENDBRANCH   2  22
TORSDOF 7
ENDMDL
MODEL 8
REMARK VINA RESULT:      -6.5      4.135     10.105
REMARK  7 active torsions:
REMARK  status: ('A' for Active; 'I' for Inactive)
REMARK    1  A    between atoms: N_3  and  C_7 
REMARK    2  A    between atoms: N_4  and  C_10 
REMARK    3  A    between atoms: C_7  and  C_11 
REMARK    4  A    between atoms: C_7  and  C_12 
REMARK    5  A    between atoms: C_10  and  C_13 
REMARK    6  A    between atoms: C_13  and  C_22 
REMARK    7  A    between atoms: C_22  and  C_25 
ROOT
HETATM    1  N   UNK     0     -46.366  50.704  68.497  0.00  0.00    -0.345 N 
HETATM    2  N   UNK     0     -44.404  48.871  70.007  0.00  0.00    -0.365 N 
HETATM    3  C   UNK     0     -46.878  49.795  69.630  0.00  0.00     0.125 A 
HETATM    4  C   UNK     0     -44.873  50.696  68.120  0.00  0.00     0.125 A 
HETATM    5  C   UNK     0     -45.898  48.878  70.385  0.00  0.00     0.122 A 
HETATM    6  C   UNK     0     -43.893  49.779  68.875  0.00  0.00     0.122 A 
ENDROOT
BRANCH   1   7
HETATM    7  C   UNK     0     -47.346  51.620  67.742  0.00  0.00     0.040 C 
BRANCH   7   8
HETATM    8  C   UNK     0     -47.939  51.169  66.394  0.00  0.00    -0.029 A 
HETATM    9  C   UNK     0     -49.326  50.502  66.348  0.00  0.00     0.030 A 
HETATM   10  C   UNK     0     -49.919  50.051  65.001  0.00  0.00     0.056 A 
HETATM   11  C   UNK     0     -49.125  50.267  63.699  0.00  0.00     0.096 A 
HETATM   12  F   UNK     0     -49.718  49.816  62.351  0.00  0.00    -0.213 F 
HETATM   13  C   UNK     0     -47.738  50.935  63.745  0.00  0.00     0.056 A 
HETATM   14  C   UNK     0     -47.145  51.386  65.093  0.00  0.00     0.030 A 
ENDBRANCH   7   8
BRANCH   7  15
HETATM   15  C   UNK     0     -47.734  52.987  68.335  0.00  0.00    -0.029 A 
HETATM   16  C   UNK     0     -47.737  53.191  69.862  0.00  0.00     0.030 A 
HETATM   17  C   UNK     0     -48.125  54.559  70.455  0.00  0.00     0.056 A 
HETATM   18  C   UNK     0     -48.511  55.722  69.522  0.00  0.00     0.096 A 
HETATM   19  F   UNK     0     -48.899  57.089  70.115  0.00  0.00    -0.213 F 
HETATM   20  C   UNK     0     -48.508  55.517  67.995  0.00  0.00     0.056 A 
HETATM   21  C   UNK     0     -48.120  54.150  67.402  0.00  0.00     0.030 A 
ENDBRANCH   7  15
ENDBRANCH   1   7
BRANCH   2  22
HETATM   22  C   UNK     0     -43.424  47.954  70.762  0.00  0.00     0.097 C 
BRANCH  22  23
HETATM   23  C   UNK     0     -43.428  46.438  70.497  0.00  0.00     0.024 C 
BRANCH  23  24
HETATM   24  C   UNK     0     -43.491  45.450  71.677  0.00  0.00     0.002 C 
BRANCH  24  25
HETATM   25  C   UNK     0     -42.320  44.484  71.936  0.00  0.00     0.000 A 
HETATM   26  C   UNK     0     -41.018  44.616  71.123  0.00  0.00     0.000 A 
HETATM   27  C   UNK     0     -39.847  43.651  71.383  0.00  0.00     0.000 A 
HETATM   28  C   UNK     0     -39.977  42.552  72.454  0.00  0.00     0.000 A 
HETATM   29  C   UNK     0     -41.278  42.419  73.267  0.00  0.00     0.000 A 
HETATM   30  C   UNK     0     -42.450  43.385  73.008  0.00  0.00     0.000 A 
ENDBRANCH  24  25
ENDBRANCH  23  24
ENDBRANCH  22  23
ENDBRANCH   2  22
TORSDOF 7
ENDMDL
MODEL 9
REMARK VINA RESULT:      -6.4     39.138     43.412
REMARK  7 active torsions:
REMARK  status: ('A' for Active; 'I' for Inactive)
REMARK    1  A    between atoms: N_3  and  C_7 
REMARK    2  A    between atoms: N_4  and  C_10 
REMARK    3  A    between atoms: C_7  and  C_11 
REMARK    4  A    between atoms: C_7  and  C_12 
REMARK    5  A    between atoms: C_10  and  C_13 
REMARK    6  A    between atoms: C_13  and  C_22 
REMARK    7  A    between atoms: C_22  and  C_25 
ROOT
HETATM    1  N   UNK     0     -44.278   5.157  74.661  0.00  0.00    -0.345 N 
HETATM    2  N   UNK     0     -46.595   6.324  76.321  0.00  0.00    -0.365 N 
HETATM    3  C   UNK     0     -44.011   6.301  75.658  0.00  0.00     0.125 A 
HETATM    4  C   UNK     0     -45.702   4.597  74.495  0.00  0.00     0.125 A 
HETATM    5  C   UNK     0     -45.170   6.884  76.488  0.00  0.00     0.122 A 
HETATM    6  C   UNK     0     -46.861   5.181  75.325  0.00  0.00     0.122 A 
ENDROOT
BRANCH   1   7
HETATM    7  C   UNK     0     -43.119   4.574  73.831  0.00  0.00     0.040 C 
BRANCH   7   8
HETATM    8  C   UNK     0     -42.230   3.464  74.423  0.00  0.00    -0.029 A 
HETATM    9  C   UNK     0     -40.759   3.760  74.772  0.00  0.00     0.030 A 
HETATM   10  C   UNK     0     -39.870   2.651  75.364  0.00  0.00     0.056 A 
HETATM   11  C   UNK     0     -40.452   1.246  75.607  0.00  0.00     0.096 A 
HETATM   12  F   UNK     0     -39.563   0.136  76.199  0.00  0.00    -0.213 F 
HETATM   13  C   UNK     0     -41.923   0.950  75.259  0.00  0.00     0.056 A 
HETATM   14  C   UNK     0     -42.812   2.060  74.667  0.00  0.00     0.030 A 
ENDBRANCH   7   8
BRANCH   7  15
HETATM   15  C   UNK     0     -42.849   5.100  72.410  0.00  0.00    -0.029 A 
HETATM   16  C   UNK     0     -43.299   6.519  72.016  0.00  0.00     0.030 A 
HETATM   17  C   UNK     0     -43.029   7.046  70.594  0.00  0.00     0.056 A 
HETATM   18  C   UNK     0     -42.310   6.153  69.566  0.00  0.00     0.096 A 
HETATM   19  F   UNK     0     -42.040   6.680  68.143  0.00  0.00    -0.213 F 
HETATM   20  C   UNK     0     -41.860   4.734  69.960  0.00  0.00     0.056 A 
HETATM   21  C   UNK     0     -42.130   4.207  71.382  0.00  0.00     0.030 A 
ENDBRANCH   7  15
ENDBRANCH   1   7
BRANCH   2  22
HETATM   22  C   UNK     0     -47.753   6.907  77.152  0.00  0.00     0.097 C 
BRANCH  22  23
HETATM   23  C   UNK     0     -47.813   8.419  77.435  0.00  0.00     0.024 C 
BRANCH  23  24
HETATM   24  C   UNK     0     -47.956   9.416  76.270  0.00  0.00     0.002 C 
BRANCH  24  25
HETATM   25  C   UNK     0     -49.292  10.150  76.044  0.00  0.00     0.000 A 
HETATM   26  C   UNK     0     -49.507  10.982  74.766  0.00  0.00     0.000 A 
HETATM   27  C   UNK     0     -50.842  11.716  74.541  0.00  0.00     0.000 A 
HETATM   28  C   UNK     0     -51.962  11.618  75.593  0.00  0.00     0.000 A 
HETATM   29  C   UNK     0     -51.747  10.786  76.871  0.00  0.00     0.000 A 
HETATM   30  C   UNK     0     -50.412  10.052  77.097  0.00  0.00     0.000 A 
ENDBRANCH  24  25
ENDBRANCH  23  24
ENDBRANCH  22  23
ENDBRANCH   2  22
TORSDOF 7
ENDMDL
MODEL 10
REMARK VINA RESULT:      -6.4      9.561     14.284
REMARK  7 active torsions:
REMARK  status: ('A' for Active; 'I' for Inactive)
REMARK    1  A    between atoms: N_3  and  C_7 
REMARK    2  A    between atoms: N_4  and  C_10 
REMARK    3  A    between atoms: C_7  and  C_11 
REMARK    4  A    between atoms: C_7  and  C_12 
REMARK    5  A    between atoms: C_10  and  C_13 
REMARK    6  A    between atoms: C_13  and  C_22 
REMARK    7  A    between atoms: C_22  and  C_25 
ROOT
HETATM    1  N   UNK     0     -42.476  41.121  61.636  0.00  0.00    -0.345 N 
HETATM    2  N   UNK     0     -41.531  41.380  64.556  0.00  0.00    -0.365 N 
HETATM    3  C   UNK     0     -43.117  40.249  62.733  0.00  0.00     0.125 A 
HETATM    4  C   UNK     0     -41.364  42.121  61.999  0.00  0.00     0.125 A 
HETATM    5  C   UNK     0     -42.644  40.379  64.193  0.00  0.00     0.122 A 
HETATM    6  C   UNK     0     -40.892  42.250  63.459  0.00  0.00     0.122 A 
ENDROOT
BRANCH   1   7
HETATM    7  C   UNK     0     -42.949  40.991  60.176  0.00  0.00     0.040 C 
BRANCH   7   8
HETATM    8  C   UNK     0     -42.071  41.532  59.032  0.00  0.00    -0.029 A 
HETATM    9  C   UNK     0     -40.954  40.654  58.438  0.00  0.00     0.030 A 
HETATM   10  C   UNK     0     -40.076  41.194  57.294  0.00  0.00     0.056 A 
HETATM   11  C   UNK     0     -40.315  42.613  56.744  0.00  0.00     0.096 A 
HETATM   12  F   UNK     0     -39.438  43.153  55.599  0.00  0.00    -0.213 F 
HETATM   13  C   UNK     0     -41.433  43.490  57.338  0.00  0.00     0.056 A 
HETATM   14  C   UNK     0     -42.311  42.950  58.482  0.00  0.00     0.030 A 
ENDBRANCH   7   8
BRANCH   7  15
HETATM   15  C   UNK     0     -44.298  40.321  59.860  0.00  0.00    -0.029 A 
HETATM   16  C   UNK     0     -45.601  41.140  59.937  0.00  0.00     0.030 A 
HETATM   17  C   UNK     0     -46.951  40.470  59.621  0.00  0.00     0.056 A 
HETATM   18  C   UNK     0     -46.999  38.981  59.228  0.00  0.00     0.096 A 
HETATM   19  F   UNK     0     -48.350  38.312  58.912  0.00  0.00    -0.213 F 
HETATM   20  C   UNK     0     -45.697  38.163  59.151  0.00  0.00     0.056 A 
HETATM   21  C   UNK     0     -44.346  38.833  59.467  0.00  0.00     0.030 A 
ENDBRANCH   7  15
ENDBRANCH   1   7
BRANCH   2  22
HETATM   22  C   UNK     0     -41.059  41.509  66.016  0.00  0.00     0.097 C 
BRANCH  22  23
HETATM   23  C   UNK     0     -42.080  41.432  67.165  0.00  0.00     0.024 C 
BRANCH  23  24
HETATM   24  C   UNK     0     -41.742  40.643  68.444  0.00  0.00     0.002 C 
BRANCH  24  25
HETATM   25  C   UNK     0     -41.423  41.395  69.751  0.00  0.00     0.000 A 
HETATM   26  C   UNK     0     -40.057  42.082  69.930  0.00  0.00     0.000 A 
HETATM   27  C   UNK     0     -39.738  42.833  71.236  0.00  0.00     0.000 A 
HETATM   28  C   UNK     0     -40.786  42.898  72.363  0.00  0.00     0.000 A 
HETATM   29  C   UNK     0     -42.152  42.210  72.184  0.00  0.00     0.000 A 
HETATM   30  C   UNK     0     -42.471  41.459  70.878  0.00  0.00     0.000 A 
ENDBRANCH  24  25
ENDBRANCH  23  24
ENDBRANCH  22  23
ENDBRANCH   2  22
TORSDOF 7
ENDMDL
