MODEL 1
REMARK VINA RESULT:      -7.2      0.000      0.000
REMARK  0 active torsions:
REMARK  status: ('A' for Active; 'I' for Inactive)
ROOT
HETATM    1 Cl   UNK     0     -70.098  25.621  87.042  0.00  0.00    -0.100 Cl
HETATM    2 Cl   UNK     0     -67.654  24.868  86.631  0.00  0.00    -0.158 Cl
HETATM    3  O   UNK     0     -64.642  19.331  83.242  0.00  0.00    -0.165 OA
HETATM    4  O   UNK     0     -67.330  18.495  82.652  0.00  0.00    -0.165 OA
HETATM    5  N   UNK     0     -68.524  20.473  83.861  0.00  0.00    -0.222 NA
HETATM    6  N   UNK     0     -65.290  21.480  84.570  0.00  0.00    -0.217 NA
HETATM    7  C   UNK     0     -67.678  22.705  85.277  0.00  0.00     0.011 A 
HETATM    8  C   UNK     0     -66.144  22.576  85.235  0.00  0.00     0.077 A 
HETATM    9  C   UNK     0     -68.737  21.769  84.666  0.00  0.00     0.059 A 
HETATM   10  C   UNK     0     -65.359  23.691  85.952  0.00  0.00     0.001 A 
HETATM   11  C   UNK     0     -65.760  20.241  83.784  0.00  0.00     0.257 A 
HETATM   12  C   UNK     0     -68.110  24.019  86.089  0.00  0.00     0.059 A 
HETATM   13  C   UNK     0     -67.200  19.794  83.468  0.00  0.00     0.257 A 
HETATM   14  C   UNK     0     -70.302  22.083  84.824  0.00  0.00     0.048 A 
HETATM   15  C   UNK     0     -69.666  24.363  86.266  0.00  0.00     0.128 A 
HETATM   16  C   UNK     0     -70.769  23.389  85.629  0.00  0.00     0.036 A 
HETATM   17  C   UNK     0     -66.114  24.837  86.650  0.00  0.00     0.019 A 
HETATM   18  C   UNK     0     -63.819  23.659  85.970  0.00  0.00     0.028 A 
HETATM   19  C   UNK     0     -65.330  25.952  87.367  0.00  0.00     0.036 A 
HETATM   20  C   UNK     0     -63.035  24.774  86.687  0.00  0.00     0.005 A 
HETATM   21  C   UNK     0     -63.791  25.920  87.385  0.00  0.00     0.006 A 
ENDROOT
TORSDOF 0
ENDMDL
MODEL 2
REMARK VINA RESULT:      -7.1      5.327      6.455
REMARK  0 active torsions:
REMARK  status: ('A' for Active; 'I' for Inactive)
ROOT
HETATM    1 Cl   UNK     0     -69.849  23.117  85.185  0.00  0.00    -0.100 Cl
HETATM    2 Cl   UNK     0     -67.806  24.259  86.294  0.00  0.00    -0.158 Cl
HETATM    3  O   UNK     0     -66.883  28.182  92.208  0.00  0.00    -0.165 OA
HETATM    4  O   UNK     0     -69.707  27.835  92.630  0.00  0.00    -0.165 OA
HETATM    5  N   UNK     0     -70.148  26.398  90.500  0.00  0.00    -0.222 NA
HETATM    6  N   UNK     0     -66.750  26.815  89.991  0.00  0.00    -0.217 NA
HETATM    7  C   UNK     0     -68.577  25.433  88.425  0.00  0.00     0.011 A 
HETATM    8  C   UNK     0     -67.175  25.961  88.782  0.00  0.00     0.077 A 
HETATM    9  C   UNK     0     -69.900  25.627  89.189  0.00  0.00     0.059 A 
HETATM   10  C   UNK     0     -66.050  25.587  87.799  0.00  0.00     0.001 A 
HETATM   11  C   UNK     0     -67.622  27.351  91.143  0.00  0.00     0.257 A 
HETATM   12  C   UNK     0     -68.529  24.586  87.064  0.00  0.00     0.059 A 
HETATM   13  C   UNK     0     -69.134  27.165  91.369  0.00  0.00     0.257 A 
HETATM   14  C   UNK     0     -71.266  24.988  88.645  0.00  0.00     0.048 A 
HETATM   15  C   UNK     0     -69.877  23.933  86.491  0.00  0.00     0.128 A 
HETATM   16  C   UNK     0     -71.255  24.135  87.287  0.00  0.00     0.036 A 
HETATM   17  C   UNK     0     -66.365  24.735  86.555  0.00  0.00     0.019 A 
HETATM   18  C   UNK     0     -64.609  26.064  88.061  0.00  0.00     0.028 A 
HETATM   19  C   UNK     0     -65.239  24.361  85.573  0.00  0.00     0.036 A 
HETATM   20  C   UNK     0     -63.483  25.690  87.079  0.00  0.00     0.005 A 
HETATM   21  C   UNK     0     -63.799  24.838  85.835  0.00  0.00     0.006 A 
ENDROOT
TORSDOF 0
ENDMDL
MODEL 3
REMARK VINA RESULT:      -6.8     38.753     39.182
REMARK  0 active torsions:
REMARK  status: ('A' for Active; 'I' for Inactive)
ROOT
HETATM    1 Cl   UNK     0     -64.888  47.158  51.507  0.00  0.00    -0.100 Cl
HETATM    2 Cl   UNK     0     -63.822  45.210  52.842  0.00  0.00    -0.158 Cl
HETATM    3  O   UNK     0     -57.947  44.552  56.874  0.00  0.00    -0.165 OA
HETATM    4  O   UNK     0     -57.471  47.323  56.269  0.00  0.00    -0.165 OA
HETATM    5  N   UNK     0     -59.586  47.666  54.783  0.00  0.00    -0.222 NA
HETATM    6  N   UNK     0     -60.159  44.331  55.511  0.00  0.00    -0.217 NA
HETATM    7  C   UNK     0     -61.684  46.050  53.954  0.00  0.00     0.011 A 
HETATM    8  C   UNK     0     -61.356  44.697  54.613  0.00  0.00     0.077 A 
HETATM    9  C   UNK     0     -60.897  47.370  54.029  0.00  0.00     0.059 A 
HETATM   10  C   UNK     0     -62.357  43.559  54.339  0.00  0.00     0.001 A 
HETATM   11  C   UNK     0     -58.994  45.229  55.971  0.00  0.00     0.257 A 
HETATM   12  C   UNK     0     -63.041  45.947  53.106  0.00  0.00     0.059 A 
HETATM   13  C   UNK     0     -58.739  46.713  55.647  0.00  0.00     0.257 A 
HETATM   14  C   UNK     0     -61.412  48.681  53.261  0.00  0.00     0.048 A 
HETATM   15  C   UNK     0     -63.586  47.238  52.326  0.00  0.00     0.128 A 
HETATM   16  C   UNK     0     -62.766  48.614  52.404  0.00  0.00     0.036 A 
HETATM   17  C   UNK     0     -63.591  43.815  53.453  0.00  0.00     0.019 A 
HETATM   18  C   UNK     0     -62.124  42.164  54.950  0.00  0.00     0.028 A 
HETATM   19  C   UNK     0     -64.591  42.678  53.178  0.00  0.00     0.036 A 
HETATM   20  C   UNK     0     -63.125  41.027  54.676  0.00  0.00     0.005 A 
HETATM   21  C   UNK     0     -64.359  41.284  53.790  0.00  0.00     0.006 A 
ENDROOT
TORSDOF 0
ENDMDL
MODEL 4
REMARK VINA RESULT:      -6.6     34.963     37.622
REMARK  0 active torsions:
REMARK  status: ('A' for Active; 'I' for Inactive)
ROOT
HETATM    1 Cl   UNK     0     -28.976  15.163 101.172  0.00  0.00    -0.100 Cl
HETATM    2 Cl   UNK     0     -30.875  16.894 100.845  0.00  0.00    -0.158 Cl
HETATM    3  O   UNK     0     -37.731  16.459  98.841  0.00  0.00    -0.165 OA
HETATM    4  O   UNK     0     -37.273  13.628  98.621  0.00  0.00    -0.165 OA
HETATM    5  N   UNK     0     -34.768  13.680  99.341  0.00  0.00    -0.222 NA
HETATM    6  N   UNK     0     -35.318  17.086  99.605  0.00  0.00    -0.217 NA
HETATM    7  C   UNK     0     -32.983  15.667 100.094  0.00  0.00     0.011 A 
HETATM    8  C   UNK     0     -33.838  16.946 100.009  0.00  0.00     0.077 A 
HETATM    9  C   UNK     0     -33.397  14.214  99.797  0.00  0.00     0.059 A 
HETATM   10  C   UNK     0     -33.119  18.257 100.375  0.00  0.00     0.001 A 
HETATM   11  C   UNK     0     -36.308  15.982  99.187  0.00  0.00     0.257 A 
HETATM   12  C   UNK     0     -31.491  16.020 100.562  0.00  0.00     0.059 A 
HETATM   13  C   UNK     0     -36.063  14.467  99.069  0.00  0.00     0.257 A 
HETATM   14  C   UNK     0     -32.345  13.012  99.947  0.00  0.00     0.048 A 
HETATM   15  C   UNK     0     -30.413  14.842 100.723  0.00  0.00     0.128 A 
HETATM   16  C   UNK     0     -30.844  13.329 100.414  0.00  0.00     0.036 A 
HETATM   17  C   UNK     0     -31.637  18.231 100.794  0.00  0.00     0.019 A 
HETATM   18  C   UNK     0     -33.881  19.595 100.323  0.00  0.00     0.028 A 
HETATM   19  C   UNK     0     -30.917  19.542 101.161  0.00  0.00     0.036 A 
HETATM   20  C   UNK     0     -33.161  20.906 100.690  0.00  0.00     0.005 A 
HETATM   21  C   UNK     0     -31.679  20.879 101.109  0.00  0.00     0.006 A 
ENDROOT
TORSDOF 0
ENDMDL
MODEL 5
REMARK VINA RESULT:      -6.3      3.041      5.580
REMARK  0 active torsions:
REMARK  status: ('A' for Active; 'I' for Inactive)
ROOT
HETATM    1 Cl   UNK     0     -71.805  24.885  89.024  0.00  0.00    -0.100 Cl
HETATM    2 Cl   UNK     0     -70.429  23.930  87.048  0.00  0.00    -0.158 Cl
HETATM    3  O   UNK     0     -63.534  24.241  85.159  0.00  0.00    -0.165 OA
HETATM    4  O   UNK     0     -63.169  25.829  87.529  0.00  0.00    -0.165 OA
HETATM    5  N   UNK     0     -65.658  25.775  88.304  0.00  0.00    -0.222 NA
HETATM    6  N   UNK     0     -66.097  23.865  85.451  0.00  0.00    -0.217 NA
HETATM    7  C   UNK     0     -67.993  24.640  87.325  0.00  0.00     0.011 A 
HETATM    8  C   UNK     0     -67.518  23.929  86.043  0.00  0.00     0.077 A 
HETATM    9  C   UNK     0     -67.166  25.461  88.330  0.00  0.00     0.059 A 
HETATM   10  C   UNK     0     -68.607  23.185  85.249  0.00  0.00     0.001 A 
HETATM   11  C   UNK     0     -64.801  24.495  85.995  0.00  0.00     0.257 A 
HETATM   12  C   UNK     0     -69.569  24.427  87.534  0.00  0.00     0.059 A 
HETATM   13  C   UNK     0     -64.606  25.345  87.265  0.00  0.00     0.257 A 
HETATM   14  C   UNK     0     -67.857  26.127  89.615  0.00  0.00     0.048 A 
HETATM   15  C   UNK     0     -70.293  25.079  88.808  0.00  0.00     0.128 A 
HETATM   16  C   UNK     0     -69.431  25.934  89.856  0.00  0.00     0.036 A 
HETATM   17  C   UNK     0     -70.063  23.185  85.751  0.00  0.00     0.019 A 
HETATM   18  C   UNK     0     -68.240  22.440  83.951  0.00  0.00     0.028 A 
HETATM   19  C   UNK     0     -71.152  22.441  84.956  0.00  0.00     0.036 A 
HETATM   20  C   UNK     0     -69.329  21.696  83.156  0.00  0.00     0.005 A 
HETATM   21  C   UNK     0     -70.785  21.696  83.659  0.00  0.00     0.006 A 
ENDROOT
TORSDOF 0
ENDMDL
MODEL 6
REMARK VINA RESULT:      -6.3      2.803      3.954
REMARK  0 active torsions:
REMARK  status: ('A' for Active; 'I' for Inactive)
ROOT
HETATM    1 Cl   UNK     0     -71.572  22.302  87.384  0.00  0.00    -0.100 Cl
HETATM    2 Cl   UNK     0     -69.589  23.799  88.115  0.00  0.00    -0.158 Cl
HETATM    3  O   UNK     0     -62.739  24.334  86.116  0.00  0.00    -0.165 OA
HETATM    4  O   UNK     0     -63.328  22.213  84.264  0.00  0.00    -0.165 OA
HETATM    5  N   UNK     0     -65.836  21.940  84.921  0.00  0.00    -0.222 NA
HETATM    6  N   UNK     0     -65.127  24.492  87.149  0.00  0.00    -0.217 NA
HETATM    7  C   UNK     0     -67.533  23.167  86.742  0.00  0.00     0.011 A 
HETATM    8  C   UNK     0     -66.617  24.205  87.418  0.00  0.00     0.077 A 
HETATM    9  C   UNK     0     -67.186  22.159  85.631  0.00  0.00     0.059 A 
HETATM   10  C   UNK     0     -67.278  25.072  88.506  0.00  0.00     0.001 A 
HETATM   11  C   UNK     0     -64.186  23.810  86.138  0.00  0.00     0.257 A 
HETATM   12  C   UNK     0     -69.012  23.239  87.356  0.00  0.00     0.059 A 
HETATM   13  C   UNK     0     -64.502  22.674  85.146  0.00  0.00     0.257 A 
HETATM   14  C   UNK     0     -68.294  21.153  85.057  0.00  0.00     0.048 A 
HETATM   15  C   UNK     0     -70.146  22.247  86.806  0.00  0.00     0.128 A 
HETATM   16  C   UNK     0     -69.784  21.197  85.649  0.00  0.00     0.036 A 
HETATM   17  C   UNK     0     -68.764  24.869  88.855  0.00  0.00     0.019 A 
HETATM   18  C   UNK     0     -66.452  26.141  89.246  0.00  0.00     0.028 A 
HETATM   19  C   UNK     0     -69.425  25.735  89.944  0.00  0.00     0.036 A 
HETATM   20  C   UNK     0     -67.113  27.008  90.334  0.00  0.00     0.005 A 
HETATM   21  C   UNK     0     -68.599  26.804  90.683  0.00  0.00     0.006 A 
ENDROOT
TORSDOF 0
ENDMDL
MODEL 7
REMARK VINA RESULT:      -6.2     22.485     24.097
REMARK  0 active torsions:
REMARK  status: ('A' for Active; 'I' for Inactive)
ROOT
HETATM    1 Cl   UNK     0     -50.014  25.472  66.208  0.00  0.00    -0.100 Cl
HETATM    2 Cl   UNK     0     -48.517  25.444  68.323  0.00  0.00    -0.158 Cl
HETATM    3  O   UNK     0     -47.974  21.116  73.995  0.00  0.00    -0.165 OA
HETATM    4  O   UNK     0     -50.090  19.595  72.779  0.00  0.00    -0.165 OA
HETATM    5  N   UNK     0     -50.367  21.109  70.674  0.00  0.00    -0.222 NA
HETATM    6  N   UNK     0     -47.820  22.940  72.138  0.00  0.00    -0.217 NA
HETATM    7  C   UNK     0     -49.145  23.422  69.747  0.00  0.00     0.011 A 
HETATM    8  C   UNK     0     -48.108  23.726  70.845  0.00  0.00     0.077 A 
HETATM    9  C   UNK     0     -50.149  22.258  69.671  0.00  0.00     0.059 A 
HETATM   10  C   UNK     0     -47.245  24.981  70.620  0.00  0.00     0.001 A 
HETATM   11  C   UNK     0     -48.499  21.656  72.652  0.00  0.00     0.257 A 
HETATM   12  C   UNK     0     -49.075  24.527  68.587  0.00  0.00     0.059 A 
HETATM   13  C   UNK     0     -49.632  20.841  72.001  0.00  0.00     0.257 A 
HETATM   14  C   UNK     0     -51.155  22.119  68.429  0.00  0.00     0.048 A 
HETATM   15  C   UNK     0     -50.067  24.419  67.331  0.00  0.00     0.128 A 
HETATM   16  C   UNK     0     -51.113  23.206  67.252  0.00  0.00     0.036 A 
HETATM   17  C   UNK     0     -47.449  25.841  69.359  0.00  0.00     0.019 A 
HETATM   18  C   UNK     0     -46.176  25.377  71.657  0.00  0.00     0.028 A 
HETATM   19  C   UNK     0     -46.586  27.096  69.134  0.00  0.00     0.036 A 
HETATM   20  C   UNK     0     -45.313  26.632  71.433  0.00  0.00     0.005 A 
HETATM   21  C   UNK     0     -45.518  27.491  70.171  0.00  0.00     0.006 A 
ENDROOT
TORSDOF 0
ENDMDL
MODEL 8
REMARK VINA RESULT:      -6.1      2.671      4.844
REMARK  0 active torsions:
REMARK  status: ('A' for Active; 'I' for Inactive)
ROOT
HETATM    1 Cl   UNK     0     -70.873  19.384  84.140  0.00  0.00    -0.100 Cl
HETATM    2 Cl   UNK     0     -69.991  21.624  85.095  0.00  0.00    -0.158 Cl
HETATM    3  O   UNK     0     -63.509  24.606  85.647  0.00  0.00    -0.165 OA
HETATM    4  O   UNK     0     -62.530  22.221  84.372  0.00  0.00    -0.165 OA
HETATM    5  N   UNK     0     -64.846  21.050  84.124  0.00  0.00    -0.222 NA
HETATM    6  N   UNK     0     -66.025  23.919  85.658  0.00  0.00    -0.217 NA
HETATM    7  C   UNK     0     -67.459  21.706  84.791  0.00  0.00     0.011 A 
HETATM    8  C   UNK     0     -67.308  23.096  85.438  0.00  0.00     0.077 A 
HETATM    9  C   UNK     0     -66.363  20.796  84.207  0.00  0.00     0.059 A 
HETATM   10  C   UNK     0     -68.613  23.751  85.928  0.00  0.00     0.001 A 
HETATM   11  C   UNK     0     -64.575  23.554  85.287  0.00  0.00     0.257 A 
HETATM   12  C   UNK     0     -68.997  21.254  84.783  0.00  0.00     0.059 A 
HETATM   13  C   UNK     0     -64.050  22.277  84.604  0.00  0.00     0.257 A 
HETATM   14  C   UNK     0     -66.731  19.369  83.573  0.00  0.00     0.048 A 
HETATM   15  C   UNK     0     -69.401  19.834  84.156  0.00  0.00     0.128 A 
HETATM   16  C   UNK     0     -68.260  18.885  83.547  0.00  0.00     0.036 A 
HETATM   17  C   UNK     0     -69.955  23.015  85.756  0.00  0.00     0.019 A 
HETATM   18  C   UNK     0     -68.577  25.141  86.589  0.00  0.00     0.028 A 
HETATM   19  C   UNK     0     -71.261  23.669  86.246  0.00  0.00     0.036 A 
HETATM   20  C   UNK     0     -69.882  25.795  87.079  0.00  0.00     0.005 A 
HETATM   21  C   UNK     0     -71.224  25.059  86.907  0.00  0.00     0.006 A 
ENDROOT
TORSDOF 0
ENDMDL
MODEL 9
REMARK VINA RESULT:      -6.1     53.113     55.373
REMARK  0 active torsions:
REMARK  status: ('A' for Active; 'I' for Inactive)
ROOT
HETATM    1 Cl   UNK     0     -14.791  49.327  80.701  0.00  0.00    -0.100 Cl
HETATM    2 Cl   UNK     0     -16.082  47.935  78.938  0.00  0.00    -0.158 Cl
HETATM    3  O   UNK     0     -22.841  47.894  76.589  0.00  0.00    -0.165 OA
HETATM    4  O   UNK     0     -23.288  50.029  78.464  0.00  0.00    -0.165 OA
HETATM    5  N   UNK     0     -20.852  50.124  79.387  0.00  0.00    -0.222 NA
HETATM    6  N   UNK     0     -20.313  47.555  77.131  0.00  0.00    -0.217 NA
HETATM    7  C   UNK     0     -18.503  48.737  78.872  0.00  0.00     0.011 A 
HETATM    8  C   UNK     0     -18.928  47.739  77.779  0.00  0.00     0.077 A 
HETATM    9  C   UNK     0     -19.359  49.799  79.587  0.00  0.00     0.059 A 
HETATM   10  C   UNK     0     -17.821  46.799  77.265  0.00  0.00     0.001 A 
HETATM   11  C   UNK     0     -21.616  48.325  77.417  0.00  0.00     0.257 A 
HETATM   12  C   UNK     0     -16.951  48.554  79.229  0.00  0.00     0.059 A 
HETATM   13  C   UNK     0     -21.856  49.469  78.421  0.00  0.00     0.257 A 
HETATM   14  C   UNK     0     -18.721  50.751  80.710  0.00  0.00     0.048 A 
HETATM   15  C   UNK     0     -16.280  49.489  80.346  0.00  0.00     0.128 A 
HETATM   16  C   UNK     0     -17.172  50.595  81.091  0.00  0.00     0.036 A 
HETATM   17  C   UNK     0     -16.397  46.897  77.845  0.00  0.00     0.019 A 
HETATM   18  C   UNK     0     -18.137  45.762  76.172  0.00  0.00     0.028 A 
HETATM   19  C   UNK     0     -15.290  45.958  77.331  0.00  0.00     0.036 A 
HETATM   20  C   UNK     0     -17.030  44.822  75.658  0.00  0.00     0.005 A 
HETATM   21  C   UNK     0     -15.607  44.921  76.239  0.00  0.00     0.006 A 
ENDROOT
TORSDOF 0
ENDMDL
MODEL 10
REMARK VINA RESULT:      -6.0     34.918     36.478
REMARK  0 active torsions:
REMARK  status: ('A' for Active; 'I' for Inactive)
ROOT
HETATM    1 Cl   UNK     0     -42.489  36.759  56.268  0.00  0.00    -0.100 Cl
HETATM    2 Cl   UNK     0     -44.762  37.174  57.440  0.00  0.00    -0.158 Cl
HETATM    3  O   UNK     0     -49.266  33.067  61.188  0.00  0.00    -0.165 OA
HETATM    4  O   UNK     0     -47.382  30.942  60.732  0.00  0.00    -0.165 OA
HETATM    5  N   UNK     0     -45.677  32.353  59.354  0.00  0.00    -0.222 NA
HETATM    6  N   UNK     0     -47.944  34.910  59.903  0.00  0.00    -0.217 NA
HETATM    7  C   UNK     0     -45.542  34.995  58.514  0.00  0.00     0.011 A 
HETATM    8  C   UNK     0     -46.841  35.600  59.077  0.00  0.00     0.077 A 
HETATM    9  C   UNK     0     -45.024  33.550  58.637  0.00  0.00     0.059 A 
HETATM   10  C   UNK     0     -47.069  37.093  58.775  0.00  0.00     0.001 A 
HETATM   11  C   UNK     0     -48.018  33.444  60.369  0.00  0.00     0.257 A 
HETATM   12  C   UNK     0     -44.704  36.105  57.716  0.00  0.00     0.059 A 
HETATM   13  C   UNK     0     -47.009  32.306  60.125  0.00  0.00     0.257 A 
HETATM   14  C   UNK     0     -43.631  33.116  57.971  0.00  0.00     0.048 A 
HETATM   15  C   UNK     0     -43.307  35.705  57.038  0.00  0.00     0.128 A 
HETATM   16  C   UNK     0     -42.767  34.201  57.166  0.00  0.00     0.036 A 
HETATM   17  C   UNK     0     -46.029  37.881  57.956  0.00  0.00     0.019 A 
HETATM   18  C   UNK     0     -48.337  37.799  59.291  0.00  0.00     0.028 A 
HETATM   19  C   UNK     0     -46.257  39.373  57.653  0.00  0.00     0.036 A 
HETATM   20  C   UNK     0     -48.565  39.291  58.989  0.00  0.00     0.005 A 
HETATM   21  C   UNK     0     -47.525  40.078  58.170  0.00  0.00     0.006 A 
ENDROOT
TORSDOF 0
ENDMDL
