MODEL 1
REMARK VINA RESULT:      -5.8      0.000      0.000
REMARK  1 active torsions:
REMARK  status: ('A' for Active; 'I' for Inactive)
REMARK    1  A    between atoms: C_10  and  C_11 
ROOT
HETATM    1  N   UNK     0     -67.331  23.310  85.062  0.00  0.00    -0.348 N 
HETATM    2  C   UNK     0     -66.852  25.367  86.401  0.00  0.00     0.021 A 
HETATM    3  C   UNK     0     -66.996  24.317  85.732  0.00  0.00     0.083 A 
HETATM    4  C   UNK     0     -63.547  24.510  86.350  0.00  0.00     0.004 A 
HETATM    5  C   UNK     0     -64.523  23.910  85.839  0.00  0.00     0.019 A 
HETATM    6  C   UNK     0     -63.554  25.821  87.159  0.00  0.00     0.002 A 
HETATM    7  C   UNK     0     -62.281  22.612  85.362  0.00  0.00     0.000 A 
HETATM    8  C   UNK     0     -63.256  22.012  84.851  0.00  0.00     0.002 A 
HETATM    9  C   UNK     0     -66.904  26.436  87.054  0.00  0.00     0.004 A 
HETATM   10  C   UNK     0     -68.051  25.732  86.453  0.00  0.00     0.024 A 
HETATM   11  C   UNK     0     -68.239  24.353  85.574  0.00  0.00     0.100 A 
HETATM   12  C   UNK     0     -66.461  22.492  84.683  0.00  0.00     0.090 C 
ENDROOT
TORSDOF 1
ENDMDL
MODEL 2
REMARK VINA RESULT:      -5.8      1.538      5.156
REMARK  1 active torsions:
REMARK  status: ('A' for Active; 'I' for Inactive)
REMARK    1  A    between atoms: C_10  and  C_11 
ROOT
HETATM    1  N   UNK     0     -63.011  24.325  86.274  0.00  0.00    -0.348 N 
HETATM    2  C   UNK     0     -63.992  22.416  84.990  0.00  0.00     0.021 A 
HETATM    3  C   UNK     0     -63.590  23.410  85.641  0.00  0.00     0.083 A 
HETATM    4  C   UNK     0     -67.055  23.883  85.346  0.00  0.00     0.004 A 
HETATM    5  C   UNK     0     -65.941  24.280  85.763  0.00  0.00     0.019 A 
HETATM    6  C   UNK     0     -67.371  22.608  84.544  0.00  0.00     0.002 A 
HETATM    7  C   UNK     0     -67.841  25.971  86.444  0.00  0.00     0.000 A 
HETATM    8  C   UNK     0     -66.727  26.367  86.861  0.00  0.00     0.002 A 
HETATM    9  C   UNK     0     -64.204  21.368  84.339  0.00  0.00     0.004 A 
HETATM   10  C   UNK     0     -62.894  21.833  84.829  0.00  0.00     0.024 A 
HETATM   11  C   UNK     0     -62.368  23.137  85.683  0.00  0.00     0.100 A 
HETATM   12  C   UNK     0     -63.671  25.287  86.731  0.00  0.00     0.090 C 
ENDROOT
TORSDOF 1
ENDMDL
MODEL 3
REMARK VINA RESULT:      -5.7      1.255      3.840
REMARK  1 active torsions:
REMARK  status: ('A' for Active; 'I' for Inactive)
REMARK    1  A    between atoms: C_10  and  C_11 
ROOT
HETATM    1  N   UNK     0     -67.148  22.873  85.632  0.00  0.00    -0.348 N 
HETATM    2  C   UNK     0     -65.230  21.564  84.704  0.00  0.00     0.021 A 
HETATM    3  C   UNK     0     -66.126  22.282  85.208  0.00  0.00     0.083 A 
HETATM    4  C   UNK     0     -63.118  23.826  86.148  0.00  0.00     0.004 A 
HETATM    5  C   UNK     0     -64.372  23.798  86.167  0.00  0.00     0.019 A 
HETATM    6  C   UNK     0     -62.155  22.839  85.463  0.00  0.00     0.002 A 
HETATM    7  C   UNK     0     -63.469  25.870  87.521  0.00  0.00     0.000 A 
HETATM    8  C   UNK     0     -64.723  25.842  87.539  0.00  0.00     0.002 A 
HETATM    9  C   UNK     0     -64.483  20.738  84.131  0.00  0.00     0.004 A 
HETATM   10  C   UNK     0     -65.957  20.705  84.152  0.00  0.00     0.024 A 
HETATM   11  C   UNK     0     -67.132  21.647  84.814  0.00  0.00     0.100 A 
HETATM   12  C   UNK     0     -67.030  23.913  86.322  0.00  0.00     0.090 C 
ENDROOT
TORSDOF 1
ENDMDL
MODEL 4
REMARK VINA RESULT:      -5.6      1.588      4.245
REMARK  1 active torsions:
REMARK  status: ('A' for Active; 'I' for Inactive)
REMARK    1  A    between atoms: C_10  and  C_11 
ROOT
HETATM    1  N   UNK     0     -66.014  22.036  85.738  0.00  0.00    -0.348 N 
HETATM    2  C   UNK     0     -63.718  23.026  85.798  0.00  0.00     0.021 A 
HETATM    3  C   UNK     0     -64.899  22.604  85.825  0.00  0.00     0.083 A 
HETATM    4  C   UNK     0     -64.957  25.524  87.770  0.00  0.00     0.004 A 
HETATM    5  C   UNK     0     -65.559  24.541  87.276  0.00  0.00     0.019 A 
HETATM    6  C   UNK     0     -63.469  25.896  87.630  0.00  0.00     0.002 A 
HETATM    7  C   UNK     0     -67.212  26.028  88.688  0.00  0.00     0.000 A 
HETATM    8  C   UNK     0     -67.814  25.046  88.194  0.00  0.00     0.002 A 
HETATM    9  C   UNK     0     -62.502  23.292  85.658  0.00  0.00     0.004 A 
HETATM   10  C   UNK     0     -63.209  22.136  85.077  0.00  0.00     0.024 A 
HETATM   11  C   UNK     0     -64.758  21.582  85.113  0.00  0.00     0.100 A 
HETATM   12  C   UNK     0     -67.013  22.523  86.319  0.00  0.00     0.090 C 
ENDROOT
TORSDOF 1
ENDMDL
MODEL 5
REMARK VINA RESULT:      -5.4      1.562      4.413
REMARK  1 active torsions:
REMARK  status: ('A' for Active; 'I' for Inactive)
REMARK    1  A    between atoms: C_10  and  C_11 
ROOT
HETATM    1  N   UNK     0     -65.826  23.933  85.286  0.00  0.00    -0.348 N 
HETATM    2  C   UNK     0     -64.594  25.298  86.980  0.00  0.00     0.021 A 
HETATM    3  C   UNK     0     -65.294  24.631  86.182  0.00  0.00     0.083 A 
HETATM    4  C   UNK     0     -67.558  25.768  88.609  0.00  0.00     0.004 A 
HETATM    5  C   UNK     0     -67.333  25.122  87.558  0.00  0.00     0.019 A 
HETATM    6  C   UNK     0     -66.555  26.545  89.481  0.00  0.00     0.002 A 
HETATM    7  C   UNK     0     -69.889  25.014  88.184  0.00  0.00     0.000 A 
HETATM    8  C   UNK     0     -69.664  24.368  87.133  0.00  0.00     0.002 A 
HETATM    9  C   UNK     0     -63.744  25.919  87.660  0.00  0.00     0.004 A 
HETATM   10  C   UNK     0     -63.478  25.160  86.425  0.00  0.00     0.024 A 
HETATM   11  C   UNK     0     -64.397  24.284  85.377  0.00  0.00     0.100 A 
HETATM   12  C   UNK     0     -67.058  23.704  85.318  0.00  0.00     0.090 C 
ENDROOT
TORSDOF 1
ENDMDL
MODEL 6
REMARK VINA RESULT:      -5.4      1.289      3.237
REMARK  1 active torsions:
REMARK  status: ('A' for Active; 'I' for Inactive)
REMARK    1  A    between atoms: C_10  and  C_11 
ROOT
HETATM    1  N   UNK     0     -66.776  25.199  86.573  0.00  0.00    -0.348 N 
HETATM    2  C   UNK     0     -64.288  25.122  86.807  0.00  0.00     0.021 A 
HETATM    3  C   UNK     0     -65.530  25.075  86.641  0.00  0.00     0.083 A 
HETATM    4  C   UNK     0     -64.318  22.172  85.087  0.00  0.00     0.004 A 
HETATM    5  C   UNK     0     -65.283  22.906  85.405  0.00  0.00     0.019 A 
HETATM    6  C   UNK     0     -62.822  22.388  85.380  0.00  0.00     0.002 A 
HETATM    7  C   UNK     0     -66.123  20.790  84.080  0.00  0.00     0.000 A 
HETATM    8  C   UNK     0     -67.088  21.524  84.398  0.00  0.00     0.002 A 
HETATM    9  C   UNK     0     -63.081  25.337  87.068  0.00  0.00     0.004 A 
HETATM   10  C   UNK     0     -64.216  26.200  87.443  0.00  0.00     0.024 A 
HETATM   11  C   UNK     0     -65.846  26.139  87.224  0.00  0.00     0.100 A 
HETATM   12  C   UNK     0     -67.462  24.327  85.988  0.00  0.00     0.090 C 
ENDROOT
TORSDOF 1
ENDMDL
MODEL 7
REMARK VINA RESULT:      -5.0      1.953      3.287
REMARK  1 active torsions:
REMARK  status: ('A' for Active; 'I' for Inactive)
REMARK    1  A    between atoms: C_10  and  C_11 
ROOT
HETATM    1  N   UNK     0     -64.191  25.600  87.430  0.00  0.00    -0.348 N 
HETATM    2  C   UNK     0     -66.570  24.957  87.853  0.00  0.00     0.021 A 
HETATM    3  C   UNK     0     -65.370  25.200  87.583  0.00  0.00     0.083 A 
HETATM    4  C   UNK     0     -66.098  22.262  85.809  0.00  0.00     0.004 A 
HETATM    5  C   UNK     0     -65.281  23.156  86.131  0.00  0.00     0.019 A 
HETATM    6  C   UNK     0     -67.568  22.116  86.244  0.00  0.00     0.002 A 
HETATM    7  C   UNK     0     -64.157  21.413  84.508  0.00  0.00     0.000 A 
HETATM    8  C   UNK     0     -63.339  22.307  84.831  0.00  0.00     0.002 A 
HETATM    9  C   UNK     0     -67.761  24.876  88.232  0.00  0.00     0.004 A 
HETATM   10  C   UNK     0     -66.800  25.928  88.612  0.00  0.00     0.024 A 
HETATM   11  C   UNK     0     -65.225  26.247  88.258  0.00  0.00     0.100 A 
HETATM   12  C   UNK     0     -63.401  24.960  86.697  0.00  0.00     0.090 C 
ENDROOT
TORSDOF 1
ENDMDL
MODEL 8
REMARK VINA RESULT:      -4.7      2.365      3.911
REMARK  1 active torsions:
REMARK  status: ('A' for Active; 'I' for Inactive)
REMARK    1  A    between atoms: C_10  and  C_11 
ROOT
HETATM    1  N   UNK     0     -67.503  26.145  89.467  0.00  0.00    -0.348 N 
HETATM    2  C   UNK     0     -68.870  24.868  87.807  0.00  0.00     0.021 A 
HETATM    3  C   UNK     0     -68.107  25.494  88.581  0.00  0.00     0.083 A 
HETATM    4  C   UNK     0     -66.044  24.486  85.927  0.00  0.00     0.004 A 
HETATM    5  C   UNK     0     -66.184  25.076  87.024  0.00  0.00     0.019 A 
HETATM    6  C   UNK     0     -67.115  23.753  85.098  0.00  0.00     0.002 A 
HETATM    7  C   UNK     0     -63.685  25.219  86.206  0.00  0.00     0.000 A 
HETATM    8  C   UNK     0     -63.824  25.809  87.303  0.00  0.00     0.002 A 
HETATM    9  C   UNK     0     -69.772  24.283  87.164  0.00  0.00     0.004 A 
HETATM   10  C   UNK     0     -69.937  24.976  88.454  0.00  0.00     0.024 A 
HETATM   11  C   UNK     0     -68.936  25.798  89.470  0.00  0.00     0.100 A 
HETATM   12  C   UNK     0     -66.277  26.377  89.349  0.00  0.00     0.090 C 
ENDROOT
TORSDOF 1
ENDMDL
MODEL 9
REMARK VINA RESULT:      -4.7     24.511     26.318
REMARK  1 active torsions:
REMARK  status: ('A' for Active; 'I' for Inactive)
REMARK    1  A    between atoms: C_10  and  C_11 
ROOT
HETATM    1  N   UNK     0     -62.224  50.455  92.159  0.00  0.00    -0.348 N 
HETATM    2  C   UNK     0     -61.240  48.158  92.276  0.00  0.00     0.021 A 
HETATM    3  C   UNK     0     -61.781  49.289  92.301  0.00  0.00     0.083 A 
HETATM    4  C   UNK     0     -63.003  47.661  95.159  0.00  0.00     0.004 A 
HETATM    5  C   UNK     0     -62.967  48.677  94.425  0.00  0.00     0.019 A 
HETATM    6  C   UNK     0     -62.256  46.327  94.973  0.00  0.00     0.002 A 
HETATM    7  C   UNK     0     -64.569  49.070  96.478  0.00  0.00     0.000 A 
HETATM    8  C   UNK     0     -64.533  50.087  95.745  0.00  0.00     0.002 A 
HETATM    9  C   UNK     0     -60.614  47.090  92.087  0.00  0.00     0.004 A 
HETATM   10  C   UNK     0     -60.571  48.285  91.224  0.00  0.00     0.024 A 
HETATM   11  C   UNK     0     -61.281  49.769  91.256  0.00  0.00     0.100 A 
HETATM   12  C   UNK     0     -63.024  50.928  92.999  0.00  0.00     0.090 C 
ENDROOT
TORSDOF 1
ENDMDL
MODEL 10
REMARK VINA RESULT:      -4.6     40.866     43.299
REMARK  1 active torsions:
REMARK  status: ('A' for Active; 'I' for Inactive)
REMARK    1  A    between atoms: C_10  and  C_11 
ROOT
HETATM    1  N   UNK     0     -25.836  33.224  66.613  0.00  0.00    -0.348 N 
HETATM    2  C   UNK     0     -26.668  34.109  68.800  0.00  0.00     0.021 A 
HETATM    3  C   UNK     0     -26.340  33.625  67.690  0.00  0.00     0.083 A 
HETATM    4  C   UNK     0     -29.678  32.641  68.133  0.00  0.00     0.004 A 
HETATM    5  C   UNK     0     -28.635  32.645  67.438  0.00  0.00     0.019 A 
HETATM    6  C   UNK     0     -29.910  33.302  69.505  0.00  0.00     0.002 A 
HETATM    7  C   UNK     0     -30.547  31.290  66.235  0.00  0.00     0.000 A 
HETATM    8  C   UNK     0     -29.504  31.294  65.540  0.00  0.00     0.002 A 
HETATM    9  C   UNK     0     -26.813  34.662  69.914  0.00  0.00     0.004 A 
HETATM   10  C   UNK     0     -25.586  34.668  69.097  0.00  0.00     0.024 A 
HETATM   11  C   UNK     0     -25.155  34.033  67.641  0.00  0.00     0.100 A 
HETATM   12  C   UNK     0     -26.521  32.540  65.817  0.00  0.00     0.090 C 
ENDROOT
TORSDOF 1
ENDMDL
