MODEL 1
REMARK VINA RESULT:      -7.6      0.000      0.000
REMARK  0 active torsions:
REMARK  status: ('A' for Active; 'I' for Inactive)
ROOT
HETATM    1  O   UNK     0     -68.454  21.588  84.300  0.00  0.00    -0.304 OA
HETATM    2  O   UNK     0     -70.388  25.902  86.953  0.00  0.00    -0.152 OA
HETATM    3  N   UNK     0     -67.885  24.903  86.436  0.00  0.00     0.418 N 
HETATM    4  N   UNK     0     -69.823  23.624  85.530  0.00  0.00     0.440 N 
HETATM    5  C   UNK     0     -67.336  23.678  85.683  0.00  0.00     0.326 A 
HETATM    6  C   UNK     0     -65.899  24.111  86.027  0.00  0.00    -0.009 A 
HETATM    7  C   UNK     0     -66.369  22.646  85.072  0.00  0.00     0.031 A 
HETATM    8  C   UNK     0     -68.533  22.888  85.123  0.00  0.00     0.424 A 
HETATM    9  C   UNK     0     -69.422  24.870  86.342  0.00  0.00     0.663 A 
HETATM   10  C   UNK     0     -64.445  23.655  85.805  0.00  0.00    -0.032 A 
HETATM   11  C   UNK     0     -66.923  21.445  84.282  0.00  0.00     0.072 A 
HETATM   12  C   UNK     0     -66.190  25.393  86.828  0.00  0.00     0.024 A 
HETATM   13  C   UNK     0     -64.849  22.815  85.252  0.00  0.00    -0.027 A 
HETATM   14  C   UNK     0     -65.956  20.414  83.672  0.00  0.00     0.051 A 
HETATM   15  C   UNK     0     -63.282  24.481  86.386  0.00  0.00     0.025 A 
HETATM   16  C   UNK     0     -65.027  26.219  87.409  0.00  0.00     0.005 A 
HETATM   17  C   UNK     0     -63.883  21.783  84.641  0.00  0.00     0.026 A 
HETATM   18  C   UNK     0     -64.436  20.583  83.851  0.00  0.00     0.011 A 
HETATM   19  C   UNK     0     -63.573  25.763  87.188  0.00  0.00     0.005 A 
ENDROOT
TORSDOF 0
ENDMDL
MODEL 2
REMARK VINA RESULT:      -7.5      1.293      4.035
REMARK  0 active torsions:
REMARK  status: ('A' for Active; 'I' for Inactive)
ROOT
HETATM    1  O   UNK     0     -67.184  25.946  87.261  0.00  0.00    -0.304 OA
HETATM    2  O   UNK     0     -71.097  22.963  84.986  0.00  0.00    -0.152 OA
HETATM    3  N   UNK     0     -68.359  22.826  85.078  0.00  0.00     0.418 N 
HETATM    4  N   UNK     0     -69.437  24.722  86.283  0.00  0.00     0.440 N 
HETATM    5  C   UNK     0     -67.247  23.673  85.724  0.00  0.00     0.326 A 
HETATM    6  C   UNK     0     -66.185  22.717  85.151  0.00  0.00    -0.009 A 
HETATM    7  C   UNK     0     -65.861  24.184  86.162  0.00  0.00     0.031 A 
HETATM    8  C   UNK     0     -67.914  24.845  86.469  0.00  0.00     0.424 A 
HETATM    9  C   UNK     0     -69.712  23.474  85.423  0.00  0.00     0.663 A 
HETATM   10  C   UNK     0     -64.657  22.529  85.128  0.00  0.00    -0.032 A 
HETATM   11  C   UNK     0     -65.746  25.454  87.026  0.00  0.00     0.072 A 
HETATM   12  C   UNK     0     -67.095  21.716  84.415  0.00  0.00     0.024 A 
HETATM   13  C   UNK     0     -64.591  23.425  85.736  0.00  0.00    -0.027 A 
HETATM   14  C   UNK     0     -64.360  25.964  87.463  0.00  0.00     0.051 A 
HETATM   15  C   UNK     0     -64.038  21.340  84.368  0.00  0.00     0.025 A 
HETATM   16  C   UNK     0     -66.477  20.528  83.656  0.00  0.00     0.005 A 
HETATM   17  C   UNK     0     -63.206  23.935  86.173  0.00  0.00     0.026 A 
HETATM   18  C   UNK     0     -63.090  25.204  87.037  0.00  0.00     0.011 A 
HETATM   19  C   UNK     0     -64.949  20.340  83.632  0.00  0.00     0.005 A 
ENDROOT
TORSDOF 0
ENDMDL
MODEL 3
REMARK VINA RESULT:      -6.7     33.925     35.504
REMARK  0 active torsions:
REMARK  status: ('A' for Active; 'I' for Inactive)
ROOT
HETATM    1  O   UNK     0     -41.222  45.581  67.015  0.00  0.00    -0.304 OA
HETATM    2  O   UNK     0     -43.938  47.975  71.050  0.00  0.00    -0.152 OA
HETATM    3  N   UNK     0     -43.627  45.390  70.186  0.00  0.00     0.418 N 
HETATM    4  N   UNK     0     -42.433  47.161  68.904  0.00  0.00     0.440 N 
HETATM    5  C   UNK     0     -42.855  44.709  69.040  0.00  0.00     0.326 A 
HETATM    6  C   UNK     0     -43.380  43.337  69.502  0.00  0.00    -0.009 A 
HETATM    7  C   UNK     0     -42.284  43.638  68.092  0.00  0.00     0.031 A 
HETATM    8  C   UNK     0     -42.118  45.804  68.248  0.00  0.00     0.424 A 
HETATM    9  C   UNK     0     -43.366  46.905  70.102  0.00  0.00     0.663 A 
HETATM   10  C   UNK     0     -43.286  41.849  69.118  0.00  0.00    -0.032 A 
HETATM   11  C   UNK     0     -41.359  44.052  66.932  0.00  0.00     0.072 A 
HETATM   12  C   UNK     0     -44.231  43.768  70.710  0.00  0.00     0.024 A 
HETATM   13  C   UNK     0     -42.637  42.155  68.305  0.00  0.00    -0.027 A 
HETATM   14  C   UNK     0     -40.788  42.980  65.985  0.00  0.00     0.051 A 
HETATM   15  C   UNK     0     -44.043  40.791  69.943  0.00  0.00     0.025 A 
HETATM   16  C   UNK     0     -44.988  42.711  71.535  0.00  0.00     0.005 A 
HETATM   17  C   UNK     0     -42.065  41.084  67.357  0.00  0.00     0.026 A 
HETATM   18  C   UNK     0     -41.141  41.497  66.197  0.00  0.00     0.011 A 
HETATM   19  C   UNK     0     -44.895  41.223  71.152  0.00  0.00     0.005 A 
ENDROOT
TORSDOF 0
ENDMDL
MODEL 4
REMARK VINA RESULT:      -6.5     33.154     34.798
REMARK  0 active torsions:
REMARK  status: ('A' for Active; 'I' for Inactive)
ROOT
HETATM    1  O   UNK     0     -42.066  44.606  67.612  0.00  0.00    -0.304 OA
HETATM    2  O   UNK     0     -43.149  48.459  71.268  0.00  0.00    -0.152 OA
HETATM    3  N   UNK     0     -43.041  45.718  71.312  0.00  0.00     0.418 N 
HETATM    4  N   UNK     0     -42.546  46.834  69.140  0.00  0.00     0.440 N 
HETATM    5  C   UNK     0     -42.733  44.623  70.274  0.00  0.00     0.326 A 
HETATM    6  C   UNK     0     -42.955  43.543  71.349  0.00  0.00    -0.009 A 
HETATM    7  C   UNK     0     -42.509  43.248  69.618  0.00  0.00     0.031 A 
HETATM    8  C   UNK     0     -42.427  45.313  68.932  0.00  0.00     0.424 A 
HETATM    9  C   UNK     0     -42.925  47.084  70.612  0.00  0.00     0.663 A 
HETATM   10  C   UNK     0     -42.927  42.010  71.504  0.00  0.00    -0.032 A 
HETATM   11  C   UNK     0     -42.132  43.158  68.128  0.00  0.00     0.072 A 
HETATM   12  C   UNK     0     -43.296  44.432  72.557  0.00  0.00     0.024 A 
HETATM   13  C   UNK     0     -42.662  41.963  70.453  0.00  0.00    -0.027 A 
HETATM   14  C   UNK     0     -41.908  41.783  67.473  0.00  0.00     0.051 A 
HETATM   15  C   UNK     0     -43.240  41.369  72.868  0.00  0.00     0.025 A 
HETATM   16  C   UNK     0     -43.610  43.791  73.922  0.00  0.00     0.005 A 
HETATM   17  C   UNK     0     -42.437  40.588  69.797  0.00  0.00     0.026 A 
HETATM   18  C   UNK     0     -42.060  40.497  68.307  0.00  0.00     0.011 A 
HETATM   19  C   UNK     0     -43.582  42.260  74.077  0.00  0.00     0.005 A 
ENDROOT
TORSDOF 0
ENDMDL
MODEL 5
REMARK VINA RESULT:      -6.5      1.969      4.103
REMARK  0 active torsions:
REMARK  status: ('A' for Active; 'I' for Inactive)
ROOT
HETATM    1  O   UNK     0     -64.862  25.628  88.041  0.00  0.00    -0.304 OA
HETATM    2  O   UNK     0     -70.215  25.518  88.888  0.00  0.00    -0.152 OA
HETATM    3  N   UNK     0     -68.465  24.076  87.343  0.00  0.00     0.418 N 
HETATM    4  N   UNK     0     -67.502  25.901  88.740  0.00  0.00     0.440 N 
HETATM    5  C   UNK     0     -66.945  24.107  87.102  0.00  0.00     0.326 A 
HETATM    6  C   UNK     0     -67.077  22.931  86.117  0.00  0.00    -0.009 A 
HETATM    7  C   UNK     0     -65.539  23.774  86.569  0.00  0.00     0.031 A 
HETATM    8  C   UNK     0     -66.349  25.235  87.965  0.00  0.00     0.424 A 
HETATM    9  C   UNK     0     -68.810  25.185  88.355  0.00  0.00     0.663 A 
HETATM   10  C   UNK     0     -66.200  22.051  85.207  0.00  0.00    -0.032 A 
HETATM   11  C   UNK     0     -64.321  24.584  87.050  0.00  0.00     0.072 A 
HETATM   12  C   UNK     0     -68.597  22.696  86.183  0.00  0.00     0.024 A 
HETATM   13  C   UNK     0     -65.352  22.630  85.555  0.00  0.00    -0.027 A 
HETATM   14  C   UNK     0     -62.915  24.250  86.516  0.00  0.00     0.051 A 
HETATM   15  C   UNK     0     -66.845  20.935  84.363  0.00  0.00     0.025 A 
HETATM   16  C   UNK     0     -69.241  21.581  85.339  0.00  0.00     0.005 A 
HETATM   17  C   UNK     0     -63.946  22.296  85.021  0.00  0.00     0.026 A 
HETATM   18  C   UNK     0     -62.728  23.106  85.501  0.00  0.00     0.011 A 
HETATM   19  C   UNK     0     -68.365  20.700  84.429  0.00  0.00     0.005 A 
ENDROOT
TORSDOF 0
ENDMDL
MODEL 6
REMARK VINA RESULT:      -6.0     45.820     47.789
REMARK  0 active torsions:
REMARK  status: ('A' for Active; 'I' for Inactive)
ROOT
HETATM    1  O   UNK     0     -40.891  61.774  76.625  0.00  0.00    -0.304 OA
HETATM    2  O   UNK     0     -36.273  62.184  73.816  0.00  0.00    -0.152 OA
HETATM    3  N   UNK     0     -36.925  61.476  76.385  0.00  0.00     0.418 N 
HETATM    4  N   UNK     0     -38.803  62.103  74.874  0.00  0.00     0.440 N 
HETATM    5  C   UNK     0     -38.236  61.359  77.184  0.00  0.00     0.326 A 
HETATM    6  C   UNK     0     -37.441  60.914  78.424  0.00  0.00    -0.009 A 
HETATM    7  C   UNK     0     -39.238  61.111  78.326  0.00  0.00     0.031 A 
HETATM    8  C   UNK     0     -39.397  61.747  76.249  0.00  0.00     0.424 A 
HETATM    9  C   UNK     0     -37.275  61.936  74.958  0.00  0.00     0.663 A 
HETATM   10  C   UNK     0     -37.675  60.497  79.889  0.00  0.00    -0.032 A 
HETATM   11  C   UNK     0     -40.745  61.322  78.088  0.00  0.00     0.072 A 
HETATM   12  C   UNK     0     -36.011  60.951  77.855  0.00  0.00     0.024 A 
HETATM   13  C   UNK     0     -38.733  60.651  79.706  0.00  0.00    -0.027 A 
HETATM   14  C   UNK     0     -41.747  61.073  79.231  0.00  0.00     0.051 A 
HETATM   15  C   UNK     0     -36.480  60.119  80.782  0.00  0.00     0.025 A 
HETATM   16  C   UNK     0     -34.816  60.572  78.748  0.00  0.00     0.005 A 
HETATM   17  C   UNK     0     -39.736  60.402  80.849  0.00  0.00     0.026 A 
HETATM   18  C   UNK     0     -41.242  60.613  80.611  0.00  0.00     0.011 A 
HETATM   19  C   UNK     0     -35.050  60.156  80.212  0.00  0.00     0.005 A 
ENDROOT
TORSDOF 0
ENDMDL
MODEL 7
REMARK VINA RESULT:      -5.9     45.793     47.756
REMARK  0 active torsions:
REMARK  status: ('A' for Active; 'I' for Inactive)
ROOT
HETATM    1  O   UNK     0     -35.763  61.393  76.302  0.00  0.00    -0.304 OA
HETATM    2  O   UNK     0     -40.499  62.493  73.905  0.00  0.00    -0.152 OA
HETATM    3  N   UNK     0     -39.735  61.686  76.414  0.00  0.00     0.418 N 
HETATM    4  N   UNK     0     -37.924  62.034  74.738  0.00  0.00     0.440 N 
HETATM    5  C   UNK     0     -38.390  61.374  77.095  0.00  0.00     0.326 A 
HETATM    6  C   UNK     0     -39.130  61.046  78.405  0.00  0.00    -0.009 A 
HETATM    7  C   UNK     0     -37.339  60.975  78.148  0.00  0.00     0.031 A 
HETATM    8  C   UNK     0     -37.271  61.589  76.059  0.00  0.00     0.424 A 
HETATM    9  C   UNK     0     -39.448  62.094  74.957  0.00  0.00     0.663 A 
HETATM   10  C   UNK     0     -38.831  60.594  79.847  0.00  0.00    -0.032 A 
HETATM   11  C   UNK     0     -35.844  60.962  77.777  0.00  0.00     0.072 A 
HETATM   12  C   UNK     0     -40.583  61.297  77.962  0.00  0.00     0.024 A 
HETATM   13  C   UNK     0     -37.783  60.590  79.571  0.00  0.00    -0.027 A 
HETATM   14  C   UNK     0     -34.794  60.564  78.830  0.00  0.00     0.051 A 
HETATM   15  C   UNK     0     -39.986  60.393  80.845  0.00  0.00     0.025 A 
HETATM   16  C   UNK     0     -41.738  61.096  78.961  0.00  0.00     0.005 A 
HETATM   17  C   UNK     0     -36.731  60.191  80.624  0.00  0.00     0.026 A 
HETATM   18  C   UNK     0     -35.237  60.178  80.253  0.00  0.00     0.011 A 
HETATM   19  C   UNK     0     -41.440  60.644  80.402  0.00  0.00     0.005 A 
ENDROOT
TORSDOF 0
ENDMDL
MODEL 8
REMARK VINA RESULT:      -5.9     38.869     39.082
REMARK  0 active torsions:
REMARK  status: ('A' for Active; 'I' for Inactive)
ROOT
HETATM    1  O   UNK     0     -61.269  45.150  50.731  0.00  0.00    -0.304 OA
HETATM    2  O   UNK     0     -64.459  42.932  54.511  0.00  0.00    -0.152 OA
HETATM    3  N   UNK     0     -61.887  43.886  54.458  0.00  0.00     0.418 N 
HETATM    4  N   UNK     0     -63.181  44.006  52.332  0.00  0.00     0.440 N 
HETATM    5  C   UNK     0     -60.981  44.517  53.385  0.00  0.00     0.326 A 
HETATM    6  C   UNK     0     -59.846  44.644  54.418  0.00  0.00    -0.009 A 
HETATM    7  C   UNK     0     -59.768  45.155  52.683  0.00  0.00     0.031 A 
HETATM    8  C   UNK     0     -61.781  44.590  52.071  0.00  0.00     0.424 A 
HETATM    9  C   UNK     0     -63.246  43.571  53.808  0.00  0.00     0.663 A 
HETATM   10  C   UNK     0     -58.394  45.147  54.519  0.00  0.00    -0.032 A 
HETATM   11  C   UNK     0     -59.855  45.539  51.193  0.00  0.00     0.072 A 
HETATM   12  C   UNK     0     -60.541  44.045  55.654  0.00  0.00     0.024 A 
HETATM   13  C   UNK     0     -58.469  45.411  53.469  0.00  0.00    -0.027 A 
HETATM   14  C   UNK     0     -58.642  46.177  50.492  0.00  0.00     0.051 A 
HETATM   15  C   UNK     0     -57.637  45.051  55.856  0.00  0.00     0.025 A 
HETATM   16  C   UNK     0     -59.784  43.950  56.992  0.00  0.00     0.005 A 
HETATM   17  C   UNK     0     -57.257  46.050  52.767  0.00  0.00     0.026 A 
HETATM   18  C   UNK     0     -57.343  46.433  51.279  0.00  0.00     0.011 A 
HETATM   19  C   UNK     0     -58.332  44.452  57.093  0.00  0.00     0.005 A 
ENDROOT
TORSDOF 0
ENDMDL
MODEL 9
REMARK VINA RESULT:      -5.8     27.046     29.244
REMARK  0 active torsions:
REMARK  status: ('A' for Active; 'I' for Inactive)
ROOT
HETATM    1  O   UNK     0     -63.039  52.341  76.477  0.00  0.00    -0.304 OA
HETATM    2  O   UNK     0     -66.531  48.209  76.824  0.00  0.00    -0.152 OA
HETATM    3  N   UNK     0     -65.435  49.979  78.611  0.00  0.00     0.418 N 
HETATM    4  N   UNK     0     -64.751  50.211  76.227  0.00  0.00     0.440 N 
HETATM    5  C   UNK     0     -64.443  51.152  78.513  0.00  0.00     0.326 A 
HETATM    6  C   UNK     0     -64.566  51.382  80.031  0.00  0.00    -0.009 A 
HETATM    7  C   UNK     0     -63.537  52.340  78.888  0.00  0.00     0.031 A 
HETATM    8  C   UNK     0     -64.021  51.295  77.039  0.00  0.00     0.424 A 
HETATM    9  C   UNK     0     -65.626  49.397  77.199  0.00  0.00     0.663 A 
HETATM   10  C   UNK     0     -64.021  52.314  81.130  0.00  0.00    -0.032 A 
HETATM   11  C   UNK     0     -62.718  53.058  77.799  0.00  0.00     0.072 A 
HETATM   12  C   UNK     0     -65.563  50.267  80.391  0.00  0.00     0.024 A 
HETATM   13  C   UNK     0     -63.451  52.809  80.352  0.00  0.00    -0.027 A 
HETATM   14  C   UNK     0     -61.813  54.245  78.175  0.00  0.00     0.051 A 
HETATM   15  C   UNK     0     -64.475  52.129  82.590  0.00  0.00     0.025 A 
HETATM   16  C   UNK     0     -66.018  50.082  81.851  0.00  0.00     0.005 A 
HETATM   17  C   UNK     0     -62.545  53.997  80.727  0.00  0.00     0.026 A 
HETATM   18  C   UNK     0     -61.726  54.715  79.639  0.00  0.00     0.011 A 
HETATM   19  C   UNK     0     -65.474  51.013  82.950  0.00  0.00     0.005 A 
ENDROOT
TORSDOF 0
ENDMDL
MODEL 10
REMARK VINA RESULT:      -5.7     41.628     44.134
REMARK  0 active torsions:
REMARK  status: ('A' for Active; 'I' for Inactive)
ROOT
HETATM    1  O   UNK     0     -28.718  43.489  97.851  0.00  0.00    -0.304 OA
HETATM    2  O   UNK     0     -30.382  38.992  95.323  0.00  0.00    -0.152 OA
HETATM    3  N   UNK     0     -29.227  41.351  94.528  0.00  0.00     0.418 N 
HETATM    4  N   UNK     0     -29.674  41.075  96.964  0.00  0.00     0.440 N 
HETATM    5  C   UNK     0     -28.755  42.628  95.246  0.00  0.00     0.326 A 
HETATM    6  C   UNK     0     -28.311  43.222  93.897  0.00  0.00    -0.009 A 
HETATM    7  C   UNK     0     -28.168  44.027  95.512  0.00  0.00     0.031 A 
HETATM    8  C   UNK     0     -29.031  42.457  96.751  0.00  0.00     0.424 A 
HETATM    9  C   UNK     0     -29.796  40.391  95.589  0.00  0.00     0.663 A 
HETATM   10  C   UNK     0     -27.667  44.499  93.325  0.00  0.00    -0.032 A 
HETATM   11  C   UNK     0     -28.114  44.579  96.950  0.00  0.00     0.072 A 
HETATM   12  C   UNK     0     -28.699  42.068  92.955  0.00  0.00     0.024 A 
HETATM   13  C   UNK     0     -27.636  44.874  94.342  0.00  0.00    -0.027 A 
HETATM   14  C   UNK     0     -27.527  45.977  97.215  0.00  0.00     0.051 A 
HETATM   15  C   UNK     0     -27.412  44.621  91.811  0.00  0.00     0.025 A 
HETATM   16  C   UNK     0     -28.444  42.190  91.441  0.00  0.00     0.005 A 
HETATM   17  C   UNK     0     -27.049  46.273  94.608  0.00  0.00     0.026 A 
HETATM   18  C   UNK     0     -26.995  46.825  96.045  0.00  0.00     0.011 A 
HETATM   19  C   UNK     0     -27.800  43.466  90.869  0.00  0.00     0.005 A 
ENDROOT
TORSDOF 0
ENDMDL
