MODEL 1
REMARK VINA RESULT:      -4.9      0.000      0.000
REMARK  2 active torsions:
REMARK  status: ('A' for Active; 'I' for Inactive)
REMARK    1  A    between atoms: C_1  and  C_2 
REMARK    2  A    between atoms: C_1  and  C_5 
ROOT
HETATM    1  C   UNK     0     -44.196  27.916  71.418  0.00  0.00     0.035 A 
HETATM    2  C   UNK     0     -44.258  28.938  70.267  0.00  0.00     0.120 A 
HETATM    3  N   UNK     0     -45.342  28.811  69.181  0.00  0.00    -0.296 NA
HETATM    4  C   UNK     0     -45.220  26.768  71.483  0.00  0.00     0.004 A 
HETATM    5  C   UNK     0     -46.305  26.640  70.398  0.00  0.00     0.024 A 
HETATM    6  C   UNK     0     -46.366  27.662  69.247  0.00  0.00     0.120 A 
HETATM    7  C   UNK     0     -47.328  25.492  70.463  0.00  0.00     0.002 C 
ENDROOT
BRANCH   1   8
HETATM    8  C   UNK     0     -43.111  28.044  72.504  0.00  0.00     0.100 C 
BRANCH   8   9
HETATM    9  C   UNK     0     -43.078  29.326  73.449  0.00  0.00     0.185 C 
HETATM   10  O   UNK     0     -43.821  29.193  74.768  0.00  0.00    -0.647 OA
HETATM   11  O   UNK     0     -42.345  30.590  73.038  0.00  0.00    -0.647 OA
ENDBRANCH   8   9
ENDBRANCH   1   8
TORSDOF 2
ENDMDL
MODEL 2
REMARK VINA RESULT:      -4.7      3.575      5.176
REMARK  2 active torsions:
REMARK  status: ('A' for Active; 'I' for Inactive)
REMARK    1  A    between atoms: C_1  and  C_2 
REMARK    2  A    between atoms: C_1  and  C_5 
ROOT
HETATM    1  C   UNK     0     -44.930  27.464  72.334  0.00  0.00     0.035 A 
HETATM    2  C   UNK     0     -45.986  27.731  73.423  0.00  0.00     0.120 A 
HETATM    3  N   UNK     0     -45.867  28.974  74.323  0.00  0.00    -0.296 NA
HETATM    4  C   UNK     0     -43.755  28.441  72.146  0.00  0.00     0.004 A 
HETATM    5  C   UNK     0     -43.636  29.685  73.046  0.00  0.00     0.024 A 
HETATM    6  C   UNK     0     -44.692  29.952  74.135  0.00  0.00     0.120 A 
HETATM    7  C   UNK     0     -42.461  30.662  72.858  0.00  0.00     0.002 C 
ENDROOT
BRANCH   1   8
HETATM    8  C   UNK     0     -45.050  26.220  71.434  0.00  0.00     0.100 C 
BRANCH   8   9
HETATM    9  C   UNK     0     -46.048  25.044  71.831  0.00  0.00     0.185 C 
HETATM   10  O   UNK     0     -47.478  25.197  71.339  0.00  0.00    -0.647 OA
HETATM   11  O   UNK     0     -45.579  23.854  72.649  0.00  0.00    -0.647 OA
ENDBRANCH   8   9
ENDBRANCH   1   8
TORSDOF 2
ENDMDL
MODEL 3
REMARK VINA RESULT:      -4.6     32.611     33.297
REMARK  2 active torsions:
REMARK  status: ('A' for Active; 'I' for Inactive)
REMARK    1  A    between atoms: C_1  and  C_2 
REMARK    2  A    between atoms: C_1  and  C_5 
ROOT
HETATM    1  C   UNK     0     -60.659  46.980  92.806  0.00  0.00     0.035 A 
HETATM    2  C   UNK     0     -61.907  47.131  93.697  0.00  0.00     0.120 A 
HETATM    3  N   UNK     0     -61.938  46.486  95.094  0.00  0.00    -0.296 NA
HETATM    4  C   UNK     0     -59.443  46.183  93.313  0.00  0.00     0.004 A 
HETATM    5  C   UNK     0     -59.474  45.538  94.711  0.00  0.00     0.024 A 
HETATM    6  C   UNK     0     -60.722  45.689  95.602  0.00  0.00     0.120 A 
HETATM    7  C   UNK     0     -58.259  44.741  95.218  0.00  0.00     0.002 C 
ENDROOT
BRANCH   1   8
HETATM    8  C   UNK     0     -60.628  47.625  91.408  0.00  0.00     0.100 C 
BRANCH   8   9
HETATM    9  C   UNK     0     -61.296  49.054  91.176  0.00  0.00     0.185 C 
HETATM   10  O   UNK     0     -62.590  49.057  90.380  0.00  0.00    -0.647 OA
HETATM   11  O   UNK     0     -60.660  50.318  91.725  0.00  0.00    -0.647 OA
ENDBRANCH   8   9
ENDBRANCH   1   8
TORSDOF 2
ENDMDL
MODEL 4
REMARK VINA RESULT:      -4.5      3.534      5.227
REMARK  2 active torsions:
REMARK  status: ('A' for Active; 'I' for Inactive)
REMARK    1  A    between atoms: C_1  and  C_2 
REMARK    2  A    between atoms: C_1  and  C_5 
ROOT
HETATM    1  C   UNK     0     -45.135  27.599  71.235  0.00  0.00     0.035 A 
HETATM    2  C   UNK     0     -46.180  27.356  72.341  0.00  0.00     0.120 A 
HETATM    3  N   UNK     0     -46.068  28.100  73.683  0.00  0.00    -0.296 NA
HETATM    4  C   UNK     0     -43.979  28.588  71.473  0.00  0.00     0.004 A 
HETATM    5  C   UNK     0     -43.867  29.333  72.816  0.00  0.00     0.024 A 
HETATM    6  C   UNK     0     -44.911  29.089  73.922  0.00  0.00     0.120 A 
HETATM    7  C   UNK     0     -42.711  30.321  73.054  0.00  0.00     0.002 C 
ENDROOT
BRANCH   1   8
HETATM    8  C   UNK     0     -45.247  26.854  69.892  0.00  0.00     0.100 C 
BRANCH   8   9
HETATM    9  C   UNK     0     -46.500  27.112  68.941  0.00  0.00     0.185 C 
HETATM   10  O   UNK     0     -46.520  28.451  68.224  0.00  0.00    -0.647 OA
HETATM   11  O   UNK     0     -47.592  26.070  68.777  0.00  0.00    -0.647 OA
ENDBRANCH   8   9
ENDBRANCH   1   8
TORSDOF 2
ENDMDL
MODEL 5
REMARK VINA RESULT:      -4.4     39.151     41.181
REMARK  2 active torsions:
REMARK  status: ('A' for Active; 'I' for Inactive)
REMARK    1  A    between atoms: C_1  and  C_2 
REMARK    2  A    between atoms: C_1  and  C_5 
ROOT
HETATM    1  C   UNK     0     -41.450  30.189 112.507  0.00  0.00     0.035 A 
HETATM    2  C   UNK     0     -40.130  30.869 112.917  0.00  0.00     0.120 A 
HETATM    3  N   UNK     0     -40.155  32.200 113.689  0.00  0.00    -0.296 NA
HETATM    4  C   UNK     0     -42.796  30.842 112.871  0.00  0.00     0.004 A 
HETATM    5  C   UNK     0     -42.823  32.175 113.643  0.00  0.00     0.024 A 
HETATM    6  C   UNK     0     -41.502  32.854 114.052  0.00  0.00     0.120 A 
HETATM    7  C   UNK     0     -44.169  32.828 114.006  0.00  0.00     0.002 C 
ENDROOT
BRANCH   1   8
HETATM    8  C   UNK     0     -41.424  28.857 111.735  0.00  0.00     0.100 C 
BRANCH   8   9
HETATM    9  C   UNK     0     -41.567  28.854 110.148  0.00  0.00     0.185 C 
HETATM   10  O   UNK     0     -40.771  27.787 109.415  0.00  0.00    -0.647 OA
HETATM   11  O   UNK     0     -42.450  29.863 109.435  0.00  0.00    -0.647 OA
ENDBRANCH   8   9
ENDBRANCH   1   8
TORSDOF 2
ENDMDL
MODEL 6
REMARK VINA RESULT:      -4.3      2.082      2.436
REMARK  2 active torsions:
REMARK  status: ('A' for Active; 'I' for Inactive)
REMARK    1  A    between atoms: C_1  and  C_2 
REMARK    2  A    between atoms: C_1  and  C_5 
ROOT
HETATM    1  C   UNK     0     -45.576  26.985  71.602  0.00  0.00     0.035 A 
HETATM    2  C   UNK     0     -44.385  27.108  70.633  0.00  0.00     0.120 A 
HETATM    3  N   UNK     0     -44.499  26.563  69.198  0.00  0.00    -0.296 NA
HETATM    4  C   UNK     0     -46.881  26.316  71.134  0.00  0.00     0.004 A 
HETATM    5  C   UNK     0     -46.996  25.770  69.699  0.00  0.00     0.024 A 
HETATM    6  C   UNK     0     -45.805  25.893  68.730  0.00  0.00     0.120 A 
HETATM    7  C   UNK     0     -48.301  25.100  69.232  0.00  0.00     0.002 C 
ENDROOT
BRANCH   1   8
HETATM    8  C   UNK     0     -45.461  27.531  73.037  0.00  0.00     0.100 C 
BRANCH   8   9
HETATM    9  C   UNK     0     -45.842  29.047  73.345  0.00  0.00     0.185 C 
HETATM   10  O   UNK     0     -46.447  29.824  72.187  0.00  0.00    -0.647 OA
HETATM   11  O   UNK     0     -45.607  29.656  74.715  0.00  0.00    -0.647 OA
ENDBRANCH   8   9
ENDBRANCH   1   8
TORSDOF 2
ENDMDL
MODEL 7
REMARK VINA RESULT:      -4.1     20.975     21.842
REMARK  2 active torsions:
REMARK  status: ('A' for Active; 'I' for Inactive)
REMARK    1  A    between atoms: C_1  and  C_2 
REMARK    2  A    between atoms: C_1  and  C_5 
ROOT
HETATM    1  C   UNK     0     -26.228  17.605  75.860  0.00  0.00     0.035 A 
HETATM    2  C   UNK     0     -25.428  18.397  74.809  0.00  0.00     0.120 A 
HETATM    3  N   UNK     0     -25.141  19.894  75.025  0.00  0.00    -0.296 NA
HETATM    4  C   UNK     0     -26.741  18.311  77.128  0.00  0.00     0.004 A 
HETATM    5  C   UNK     0     -26.455  19.809  77.346  0.00  0.00     0.024 A 
HETATM    6  C   UNK     0     -25.654  20.601  76.294  0.00  0.00     0.120 A 
HETATM    7  C   UNK     0     -26.968  20.515  78.614  0.00  0.00     0.002 C 
ENDROOT
BRANCH   1   8
HETATM    8  C   UNK     0     -26.514  16.108  75.643  0.00  0.00     0.100 C 
BRANCH   8   9
HETATM    9  C   UNK     0     -26.865  15.568  74.185  0.00  0.00     0.185 C 
HETATM   10  O   UNK     0     -28.241  15.941  73.657  0.00  0.00    -0.647 OA
HETATM   11  O   UNK     0     -25.874  14.735  73.393  0.00  0.00    -0.647 OA
ENDBRANCH   8   9
ENDBRANCH   1   8
TORSDOF 2
ENDMDL
MODEL 8
REMARK VINA RESULT:      -4.1     34.918     36.020
REMARK  2 active torsions:
REMARK  status: ('A' for Active; 'I' for Inactive)
REMARK    1  A    between atoms: C_1  and  C_2 
REMARK    2  A    between atoms: C_1  and  C_5 
ROOT
HETATM    1  C   UNK     0     -62.518  52.513  91.125  0.00  0.00     0.035 A 
HETATM    2  C   UNK     0     -63.514  52.355  92.289  0.00  0.00     0.120 A 
HETATM    3  N   UNK     0     -63.558  51.044  93.094  0.00  0.00    -0.296 NA
HETATM    4  C   UNK     0     -61.566  51.357  90.766  0.00  0.00     0.004 A 
HETATM    5  C   UNK     0     -61.609  50.045  91.571  0.00  0.00     0.024 A 
HETATM    6  C   UNK     0     -62.605  49.888  92.735  0.00  0.00     0.120 A 
HETATM    7  C   UNK     0     -60.657  48.890  91.212  0.00  0.00     0.002 C 
ENDROOT
BRANCH   1   8
HETATM    8  C   UNK     0     -62.475  53.825  90.320  0.00  0.00     0.100 C 
BRANCH   8   9
HETATM    9  C   UNK     0     -61.498  55.001  90.767  0.00  0.00     0.185 C 
HETATM   10  O   UNK     0     -61.261  55.131  92.263  0.00  0.00    -0.647 OA
HETATM   11  O   UNK     0     -60.855  55.922  89.746  0.00  0.00    -0.647 OA
ENDBRANCH   8   9
ENDBRANCH   1   8
TORSDOF 2
ENDMDL
MODEL 9
REMARK VINA RESULT:      -4.0     12.640     14.208
REMARK  2 active torsions:
REMARK  status: ('A' for Active; 'I' for Inactive)
REMARK    1  A    between atoms: C_1  and  C_2 
REMARK    2  A    between atoms: C_1  and  C_5 
ROOT
HETATM    1  C   UNK     0     -47.213  34.642  59.600  0.00  0.00     0.035 A 
HETATM    2  C   UNK     0     -45.676  34.687  59.496  0.00  0.00     0.120 A 
HETATM    3  N   UNK     0     -44.964  36.012  59.169  0.00  0.00    -0.296 NA
HETATM    4  C   UNK     0     -48.036  35.924  59.376  0.00  0.00     0.004 A 
HETATM    5  C   UNK     0     -47.324  37.250  59.049  0.00  0.00     0.024 A 
HETATM    6  C   UNK     0     -45.788  37.294  58.945  0.00  0.00     0.120 A 
HETATM    7  C   UNK     0     -48.148  38.531  58.825  0.00  0.00     0.002 C 
ENDROOT
BRANCH   1   8
HETATM    8  C   UNK     0     -47.924  33.316  59.927  0.00  0.00     0.100 C 
BRANCH   8   9
HETATM    9  C   UNK     0     -47.418  32.421  61.144  0.00  0.00     0.185 C 
HETATM   10  O   UNK     0     -47.276  30.935  60.856  0.00  0.00    -0.647 OA
HETATM   11  O   UNK     0     -47.103  33.034  62.496  0.00  0.00    -0.647 OA
ENDBRANCH   8   9
ENDBRANCH   1   8
TORSDOF 2
ENDMDL
MODEL 10
REMARK VINA RESULT:      -4.0     33.404     34.647
REMARK  2 active torsions:
REMARK  status: ('A' for Active; 'I' for Inactive)
REMARK    1  A    between atoms: C_1  and  C_2 
REMARK    2  A    between atoms: C_1  and  C_5 
ROOT
HETATM    1  C   UNK     0     -61.642  43.291  97.091  0.00  0.00     0.035 A 
HETATM    2  C   UNK     0     -62.930  43.180  96.254  0.00  0.00     0.120 A 
HETATM    3  N   UNK     0     -64.305  43.217  96.946  0.00  0.00    -0.296 NA
HETATM    4  C   UNK     0     -61.730  43.438  98.621  0.00  0.00     0.004 A 
HETATM    5  C   UNK     0     -63.104  43.475  99.314  0.00  0.00     0.024 A 
HETATM    6  C   UNK     0     -64.392  43.364  98.477  0.00  0.00     0.120 A 
HETATM    7  C   UNK     0     -63.192  43.622 100.844  0.00  0.00     0.002 C 
ENDROOT
BRANCH   1   8
HETATM    8  C   UNK     0     -60.268  43.254  96.398  0.00  0.00     0.100 C 
BRANCH   8   9
HETATM    9  C   UNK     0     -59.473  41.878  96.278  0.00  0.00     0.185 C 
HETATM   10  O   UNK     0     -58.937  41.542  94.896  0.00  0.00    -0.647 OA
HETATM   11  O   UNK     0     -59.275  40.975  97.483  0.00  0.00    -0.647 OA
ENDBRANCH   8   9
ENDBRANCH   1   8
TORSDOF 2
ENDMDL
