MODEL 1
REMARK VINA RESULT:      -9.9      0.000      0.000
REMARK  3 active torsions:
REMARK  status: ('A' for Active; 'I' for Inactive)
REMARK    1  A    between atoms: C_16  and  C_21 
REMARK    2  A    between atoms: C_24  and  O_62 
REMARK    3  A    between atoms: C_34  and  O_35 
ROOT
HETATM    1  C   UNK     0     -75.808  32.275  59.246  0.00  0.00     0.018 A 
HETATM    2  C   UNK     0     -76.377  32.220  60.676  0.00  0.00     0.166 A 
HETATM    3  C   UNK     0     -76.170  33.450  58.318  0.00  0.00     0.004 A 
HETATM    4  N   UNK     0     -77.308  33.340  61.178  0.00  0.00    -0.347 N 
HETATM    5  C   UNK     0     -77.100  34.569  58.820  0.00  0.00     0.024 A 
HETATM    6  C   UNK     0     -77.670  34.514  60.249  0.00  0.00     0.099 A 
HETATM    7  C   UNK     0     -76.015  31.046  61.605  0.00  0.00     0.281 C 
HETATM    8  O   UNK     0     -76.585  30.991  63.035  0.00  0.00    -0.189 OA
HETATM    9  O   UNK     0     -77.516  32.111  63.537  0.00  0.00    -0.196 OA
HETATM   10  C   UNK     0     -77.877  33.285  62.608  0.00  0.00     0.265 A 
HETATM   11  C   UNK     0     -78.808  34.405  63.110  0.00  0.00     0.231 A 
HETATM   12  O   UNK     0     -79.170  35.579  62.182  0.00  0.00    -0.216 OA
HETATM   13  C   UNK     0     -74.723  28.751  62.032  0.00  0.00     0.175 A 
HETATM   14  C   UNK     0     -75.292  28.697  63.462  0.00  0.00     0.075 A 
HETATM   15  O   UNK     0     -75.084  29.926  61.103  0.00  0.00    -0.336 OA
HETATM   16  C   UNK     0     -73.430  26.458  62.459  0.00  0.00     0.065 A 
HETATM   17  O   UNK     0     -74.000  26.403  63.889  0.00  0.00    -0.317 OA
HETATM   18  C   UNK     0     -73.792  27.632  61.530  0.00  0.00    -0.008 A 
HETATM   19  C   UNK     0     -74.931  27.523  64.391  0.00  0.00     0.072 A 
HETATM   20  C   UNK     0     -73.222  27.686  60.100  0.00  0.00     0.030 C 
HETATM   21  O   UNK     0     -79.016  33.177  65.468  0.00  0.00    -0.365 OA
HETATM   22  C   UNK     0     -79.377  34.350  64.539  0.00  0.00     0.149 A 
HETATM   23  C   UNK     0     -79.585  33.122  66.897  0.00  0.00     0.151 A 
HETATM   24  C   UNK     0     -80.516  34.241  67.399  0.00  0.00     0.021 A 
HETATM   25  C   UNK     0     -80.308  35.470  65.041  0.00  0.00     0.030 A 
HETATM   26  C   UNK     0     -80.877  35.416  66.471  0.00  0.00     0.004 A 
HETATM   27  C   UNK     0     -79.223  31.947  67.826  0.00  0.00     0.071 C 
HETATM   28  C   UNK     0     -79.793  31.893  69.257  0.00  0.00     0.066 C 
HETATM   29  C   UNK     0     -78.500  29.598  69.684  0.00  0.00     0.028 C 
HETATM   30  C   UNK     0     -79.431  30.718  70.185  0.00  0.00    -0.025 C 
HETATM   31  C   UNK     0     -80.000  30.664  71.615  0.00  0.00     0.028 C 
HETATM   32  C   UNK     0     -80.670  36.644  64.112  0.00  0.00     0.003 C 
HETATM   33  C   UNK     0     -75.500  27.469  65.821  0.00  0.00    -0.021 C 
HETATM   34  C   UNK     0     -76.431  28.588  66.322  0.00  0.00     0.028 C 
HETATM   35  C   UNK     0     -75.138  26.294  66.749  0.00  0.00     0.048 C 
HETATM   36  C   UNK     0     -75.707  26.239  68.179  0.00  0.00    -0.012 C 
HETATM   37  C   UNK     0     -76.638  27.359  68.681  0.00  0.00     0.029 C 
HETATM   38  C   UNK     0     -75.346  25.065  69.108  0.00  0.00     0.148 C 
HETATM   39  C   UNK     0     -75.915  25.010  70.538  0.00  0.00     0.144 A 
HETATM   40  O   UNK     0     -76.846  26.130  71.039  0.00  0.00    -0.322 OA
HETATM   41  O   UNK     0     -74.415  23.945  68.606  0.00  0.00    -0.189 OA
HETATM   42  C   UNK     0     -75.553  23.836  71.466  0.00  0.00     0.151 A 
HETATM   43  C   UNK     0     -79.658  29.498  72.576  0.00  0.00     0.030 C 
HETATM   44  C   UNK     0     -80.319  29.435  74.237  0.00  0.00    -0.026 C 
HETATM   45  C   UNK     0     -76.122  23.781  72.896  0.00  0.00     0.004 A 
HETATM   46  C   UNK     0     -77.064  24.940  73.363  0.00  0.00     0.002 A 
HETATM   47  C   UNK     0     -77.415  26.076  72.469  0.00  0.00     0.175 A 
HETATM   48  O   UNK     0     -74.622  22.717  70.964  0.00  0.00    -0.188 OA
HETATM   49  C   UNK     0     -79.977  28.351  75.075  0.00  0.00    -0.005 C 
HETATM   50  C   UNK     0     -78.988  27.236  74.430  0.00  0.00    -0.005 C 
HETATM   51  C   UNK     0     -78.166  25.776  74.701  0.00  0.00    -0.024 C 
HETATM   52  C   UNK     0     -75.738  22.602  73.778  0.00  0.00     0.033 C 
HETATM   53  O   UNK     0     -78.493  33.311  64.026  0.00  0.00     0.000 OA
HETATM   54  C   UNK     0     -78.308  25.093  76.075  0.00  0.00     0.031 C 
ENDROOT
BRANCH  16  55
HETATM   55  C   UNK     0     -72.499  25.338  61.957  0.00  0.00     0.072 A 
HETATM   56  C   UNK     0     -73.096  24.050  61.361  0.00  0.00     0.007 A 
HETATM   57  C   UNK     0     -72.165  22.930  60.860  0.00  0.00     0.056 A 
HETATM   58  C   UNK     0     -70.637  23.098  60.954  0.00  0.00     0.127 A 
HETATM   59  C   UNK     0     -70.040  24.386  61.550  0.00  0.00     0.093 A 
HETATM   60  O   UNK     0     -69.707  21.978  60.453  0.00  0.00    -0.193 OA
HETATM   61  C   UNK     0     -70.971  25.506  62.052  0.00  0.00     0.053 A 
BRANCH  59  62
HETATM   62  O   UNK     0     -68.513  24.555  61.645  0.00  0.00    -0.331 OA
HETATM   63  C   UNK     0     -67.742  23.942  62.829  0.00  0.00     0.181 C 
ENDBRANCH  59  62
ENDBRANCH  16  55
BRANCH  28  64
HETATM   64  O   UNK     0     -80.724  33.013  69.758  0.00  0.00    -0.333 OA
HETATM   65  C   UNK     0     -80.209  34.041  70.781  0.00  0.00     0.181 C 
ENDBRANCH  28  64
TORSDOF 3
ENDMDL
MODEL 2
REMARK VINA RESULT:      -9.7     44.384     49.564
REMARK  3 active torsions:
REMARK  status: ('A' for Active; 'I' for Inactive)
REMARK    1  A    between atoms: C_16  and  C_21 
REMARK    2  A    between atoms: C_24  and  O_62 
REMARK    3  A    between atoms: C_34  and  O_35 
ROOT
HETATM    1  C   UNK     0     -59.364  57.668 111.090  0.00  0.00     0.018 A 
HETATM    2  C   UNK     0     -59.755  57.842 109.611  0.00  0.00     0.166 A 
HETATM    3  C   UNK     0     -59.134  58.906 111.977  0.00  0.00     0.004 A 
HETATM    4  N   UNK     0     -59.918  59.254 109.019  0.00  0.00    -0.347 N 
HETATM    5  C   UNK     0     -59.296  60.318 111.384  0.00  0.00     0.024 A 
HETATM    6  C   UNK     0     -59.688  60.492 109.905  0.00  0.00     0.099 A 
HETATM    7  C   UNK     0     -59.985  56.603 108.725  0.00  0.00     0.281 C 
HETATM    8  O   UNK     0     -60.377  56.777 107.246  0.00  0.00    -0.189 OA
HETATM    9  O   UNK     0     -60.539  58.190 106.652  0.00  0.00    -0.196 OA
HETATM   10  C   UNK     0     -60.309  59.427 107.539  0.00  0.00     0.265 A 
HETATM   11  C   UNK     0     -60.472  60.840 106.946  0.00  0.00     0.231 A 
HETATM   12  O   UNK     0     -60.242  62.078 107.832  0.00  0.00    -0.216 OA
HETATM   13  C   UNK     0     -60.053  53.952 108.431  0.00  0.00     0.175 A 
HETATM   14  C   UNK     0     -60.444  54.127 106.952  0.00  0.00     0.075 A 
HETATM   15  O   UNK     0     -59.823  55.191 109.317  0.00  0.00    -0.336 OA
HETATM   16  C   UNK     0     -60.120  51.303 108.137  0.00  0.00     0.065 A 
HETATM   17  O   UNK     0     -60.512  51.477 106.658  0.00  0.00    -0.317 OA
HETATM   18  C   UNK     0     -59.890  52.541 109.023  0.00  0.00    -0.008 A 
HETATM   19  C   UNK     0     -60.674  52.889 106.064  0.00  0.00     0.072 A 
HETATM   20  C   UNK     0     -59.499  52.366 110.502  0.00  0.00     0.030 C 
HETATM   21  O   UNK     0     -61.093  59.776 104.580  0.00  0.00    -0.365 OA
HETATM   22  C   UNK     0     -60.863  61.014 105.468  0.00  0.00     0.149 A 
HETATM   23  C   UNK     0     -61.485  59.950 103.102  0.00  0.00     0.151 A 
HETATM   24  C   UNK     0     -61.647  61.362 102.509  0.00  0.00     0.021 A 
HETATM   25  C   UNK     0     -61.025  62.426 104.875  0.00  0.00     0.030 A 
HETATM   26  C   UNK     0     -61.417  62.600 103.396  0.00  0.00     0.004 A 
HETATM   27  C   UNK     0     -61.714  58.712 102.216  0.00  0.00     0.071 C 
HETATM   28  C   UNK     0     -62.106  58.886 100.735  0.00  0.00     0.066 C 
HETATM   29  C   UNK     0     -62.174  56.235 100.442  0.00  0.00     0.028 C 
HETATM   30  C   UNK     0     -62.336  57.648  99.849  0.00  0.00    -0.025 C 
HETATM   31  C   UNK     0     -62.728  57.822  98.370  0.00  0.00     0.028 C 
HETATM   32  C   UNK     0     -60.796  63.664 105.762  0.00  0.00     0.003 C 
HETATM   33  C   UNK     0     -61.066  53.063 104.585  0.00  0.00    -0.021 C 
HETATM   34  C   UNK     0     -61.228  54.475 103.992  0.00  0.00     0.028 C 
HETATM   35  C   UNK     0     -61.296  51.825 103.698  0.00  0.00     0.048 C 
HETATM   36  C   UNK     0     -61.688  51.999 102.219  0.00  0.00    -0.012 C 
HETATM   37  C   UNK     0     -61.850  53.411 101.627  0.00  0.00     0.029 C 
HETATM   38  C   UNK     0     -61.917  50.760 101.333  0.00  0.00     0.148 C 
HETATM   39  C   UNK     0     -62.309  50.934  99.854  0.00  0.00     0.144 A 
HETATM   40  O   UNK     0     -62.471  52.347  99.261  0.00  0.00    -0.322 OA
HETATM   41  O   UNK     0     -61.755  49.348 101.925  0.00  0.00    -0.189 OA
HETATM   42  C   UNK     0     -62.539  49.696  98.967  0.00  0.00     0.151 A 
HETATM   43  C   UNK     0     -62.967  56.599  97.449  0.00  0.00     0.030 C 
HETATM   44  C   UNK     0     -63.422  56.801  95.731  0.00  0.00    -0.026 C 
HETATM   45  C   UNK     0     -62.930  49.870  97.488  0.00  0.00     0.004 A 
HETATM   46  C   UNK     0     -63.084  51.323  96.928  0.00  0.00     0.002 A 
HETATM   47  C   UNK     0     -62.863  52.521  97.782  0.00  0.00     0.175 A 
HETATM   48  O   UNK     0     -62.376  48.284  99.560  0.00  0.00    -0.188 OA
HETATM   49  C   UNK     0     -63.629  55.655  94.932  0.00  0.00    -0.005 C 
HETATM   50  C   UNK     0     -63.427  54.224  95.674  0.00  0.00    -0.005 C 
HETATM   51  C   UNK     0     -63.470  52.538  95.487  0.00  0.00    -0.024 C 
HETATM   52  C   UNK     0     -63.147  48.618  96.650  0.00  0.00     0.033 C 
HETATM   53  O   UNK     0     -60.700  59.695 106.067  0.00  0.00     0.000 OA
HETATM   54  C   UNK     0     -63.833  51.957  94.107  0.00  0.00     0.031 C 
ENDROOT
BRANCH  16  55
HETATM   55  C   UNK     0     -59.958  49.890 108.729  0.00  0.00     0.072 A 
HETATM   56  C   UNK     0     -58.564  49.239 108.796  0.00  0.00     0.007 A 
HETATM   57  C   UNK     0     -58.402  47.826 109.389  0.00  0.00     0.056 A 
HETATM   58  C   UNK     0     -59.634  47.065 109.915  0.00  0.00     0.127 A 
HETATM   59  C   UNK     0     -61.027  47.717 109.848  0.00  0.00     0.093 A 
HETATM   60  O   UNK     0     -59.471  45.654 110.507  0.00  0.00    -0.193 OA
HETATM   61  C   UNK     0     -61.190  49.129 109.255  0.00  0.00     0.053 A 
BRANCH  59  62
HETATM   62  O   UNK     0     -62.259  46.957 110.373  0.00  0.00    -0.331 OA
HETATM   63  C   UNK     0     -62.920  45.869 109.506  0.00  0.00     0.181 C 
ENDBRANCH  59  62
ENDBRANCH  16  55
BRANCH  28  64
HETATM   64  O   UNK     0     -62.269  60.298 100.143  0.00  0.00    -0.333 OA
HETATM   65  C   UNK     0     -63.669  60.827  99.787  0.00  0.00     0.181 C 
ENDBRANCH  28  64
TORSDOF 3
ENDMDL
MODEL 3
REMARK VINA RESULT:      -9.4      2.556     10.221
REMARK  3 active torsions:
REMARK  status: ('A' for Active; 'I' for Inactive)
REMARK    1  A    between atoms: C_16  and  C_21 
REMARK    2  A    between atoms: C_24  and  O_62 
REMARK    3  A    between atoms: C_34  and  O_35 
ROOT
HETATM    1  C   UNK     0     -78.027  35.781  59.375  0.00  0.00     0.018 A 
HETATM    2  C   UNK     0     -77.606  34.553  60.204  0.00  0.00     0.166 A 
HETATM    3  C   UNK     0     -77.530  35.938  57.925  0.00  0.00     0.004 A 
HETATM    4  N   UNK     0     -76.689  33.482  59.583  0.00  0.00    -0.347 N 
HETATM    5  C   UNK     0     -76.614  34.868  57.305  0.00  0.00     0.024 A 
HETATM    6  C   UNK     0     -76.194  33.640  58.134  0.00  0.00     0.099 A 
HETATM    7  C   UNK     0     -78.102  34.396  61.653  0.00  0.00     0.281 C 
HETATM    8  O   UNK     0     -77.682  33.168  62.482  0.00  0.00    -0.189 OA
HETATM    9  O   UNK     0     -76.765  32.097  61.862  0.00  0.00    -0.196 OA
HETATM   10  C   UNK     0     -76.269  32.255  60.412  0.00  0.00     0.265 A 
HETATM   11  C   UNK     0     -75.353  31.183  59.792  0.00  0.00     0.231 A 
HETATM   12  O   UNK     0     -74.856  31.340  58.342  0.00  0.00    -0.216 OA
HETATM   13  C   UNK     0     -79.515  35.310  63.724  0.00  0.00     0.175 A 
HETATM   14  C   UNK     0     -79.095  34.082  64.553  0.00  0.00     0.075 A 
HETATM   15  O   UNK     0     -79.019  35.467  62.274  0.00  0.00    -0.336 OA
HETATM   16  C   UNK     0     -80.928  36.224  65.793  0.00  0.00     0.065 A 
HETATM   17  O   UNK     0     -80.507  34.996  66.622  0.00  0.00    -0.317 OA
HETATM   18  C   UNK     0     -80.431  36.381  64.344  0.00  0.00    -0.008 A 
HETATM   19  C   UNK     0     -79.590  33.924  66.002  0.00  0.00     0.072 A 
HETATM   20  C   UNK     0     -80.852  37.609  63.516  0.00  0.00     0.030 C 
HETATM   21  O   UNK     0     -75.428  29.798  62.070  0.00  0.00    -0.365 OA
HETATM   22  C   UNK     0     -74.932  29.956  60.621  0.00  0.00     0.149 A 
HETATM   23  C   UNK     0     -75.008  28.571  62.898  0.00  0.00     0.151 A 
HETATM   24  C   UNK     0     -74.091  27.500  62.278  0.00  0.00     0.021 A 
HETATM   25  C   UNK     0     -74.016  28.885  60.000  0.00  0.00     0.030 A 
HETATM   26  C   UNK     0     -73.595  27.657  60.829  0.00  0.00     0.004 A 
HETATM   27  C   UNK     0     -75.504  28.414  64.348  0.00  0.00     0.071 C 
HETATM   28  C   UNK     0     -75.083  27.185  65.177  0.00  0.00     0.066 C 
HETATM   29  C   UNK     0     -76.496  28.099  67.248  0.00  0.00     0.028 C 
HETATM   30  C   UNK     0     -75.579  27.028  66.627  0.00  0.00    -0.025 C 
HETATM   31  C   UNK     0     -75.159  25.800  67.456  0.00  0.00     0.028 C 
HETATM   32  C   UNK     0     -73.520  29.043  58.551  0.00  0.00     0.003 C 
HETATM   33  C   UNK     0     -79.170  32.696  66.831  0.00  0.00    -0.021 C 
HETATM   34  C   UNK     0     -78.254  31.626  66.211  0.00  0.00     0.028 C 
HETATM   35  C   UNK     0     -79.666  32.539  68.281  0.00  0.00     0.048 C 
HETATM   36  C   UNK     0     -79.245  31.311  69.109  0.00  0.00    -0.012 C 
HETATM   37  C   UNK     0     -78.329  30.240  68.489  0.00  0.00     0.029 C 
HETATM   38  C   UNK     0     -79.742  31.154  70.559  0.00  0.00     0.148 C 
HETATM   39  C   UNK     0     -79.321  29.926  71.388  0.00  0.00     0.144 A 
HETATM   40  O   UNK     0     -78.404  28.855  70.767  0.00  0.00    -0.322 OA
HETATM   41  O   UNK     0     -80.658  32.225  71.180  0.00  0.00    -0.189 OA
HETATM   42  C   UNK     0     -79.817  29.769  72.838  0.00  0.00     0.151 A 
HETATM   43  C   UNK     0     -75.639  25.610  68.916  0.00  0.00     0.030 C 
HETATM   44  C   UNK     0     -75.150  24.183  69.879  0.00  0.00    -0.026 C 
HETATM   45  C   UNK     0     -79.397  28.541  73.667  0.00  0.00     0.004 A 
HETATM   46  C   UNK     0     -78.465  27.479  72.996  0.00  0.00     0.002 A 
HETATM   47  C   UNK     0     -77.984  27.628  71.596  0.00  0.00     0.175 A 
HETATM   48  O   UNK     0     -80.734  30.840  73.458  0.00  0.00    -0.188 OA
HETATM   49  C   UNK     0     -75.614  24.055  71.207  0.00  0.00    -0.005 C 
HETATM   50  C   UNK     0     -76.574  25.250  71.745  0.00  0.00    -0.005 C 
HETATM   51  C   UNK     0     -77.472  25.831  73.062  0.00  0.00    -0.024 C 
HETATM   52  C   UNK     0     -79.911  28.428  75.095  0.00  0.00     0.033 C 
HETATM   53  O   UNK     0     -75.798  30.992  61.171  0.00  0.00     0.000 OA
HETATM   54  C   UNK     0     -77.495  25.006  74.363  0.00  0.00     0.031 C 
ENDROOT
BRANCH  16  55
HETATM   55  C   UNK     0     -81.844  37.295  66.414  0.00  0.00     0.072 A 
HETATM   56  C   UNK     0     -83.369  37.212  66.216  0.00  0.00     0.007 A 
HETATM   57  C   UNK     0     -84.286  38.282  66.836  0.00  0.00     0.056 A 
HETATM   58  C   UNK     0     -83.678  39.436  67.656  0.00  0.00     0.127 A 
HETATM   59  C   UNK     0     -82.153  39.519  67.854  0.00  0.00     0.093 A 
HETATM   60  O   UNK     0     -84.594  40.506  68.276  0.00  0.00    -0.193 OA
HETATM   61  C   UNK     0     -81.236  38.448  67.233  0.00  0.00     0.053 A 
BRANCH  59  62
HETATM   62  O   UNK     0     -81.544  40.672  68.673  0.00  0.00    -0.331 OA
HETATM   63  C   UNK     0     -81.129  41.979  67.972  0.00  0.00     0.181 C 
ENDBRANCH  59  62
ENDBRANCH  16  55
BRANCH  28  64
HETATM   64  O   UNK     0     -74.166  26.114  64.557  0.00  0.00    -0.333 OA
HETATM   65  C   UNK     0     -74.736  24.732  64.191  0.00  0.00     0.181 C 
ENDBRANCH  28  64
TORSDOF 3
ENDMDL
MODEL 4
REMARK VINA RESULT:      -9.2     42.953     48.078
REMARK  3 active torsions:
REMARK  status: ('A' for Active; 'I' for Inactive)
REMARK    1  A    between atoms: C_16  and  C_21 
REMARK    2  A    between atoms: C_24  and  O_62 
REMARK    3  A    between atoms: C_34  and  O_35 
ROOT
HETATM    1  C   UNK     0     -60.321  58.927 108.768  0.00  0.00     0.018 A 
HETATM    2  C   UNK     0     -60.707  58.779 107.284  0.00  0.00     0.166 A 
HETATM    3  C   UNK     0     -60.226  60.327 109.403  0.00  0.00     0.004 A 
HETATM    4  N   UNK     0     -60.997  60.032 106.436  0.00  0.00    -0.347 N 
HETATM    5  C   UNK     0     -60.515  61.578 108.555  0.00  0.00     0.024 A 
HETATM    6  C   UNK     0     -60.901  61.431 107.071  0.00  0.00     0.099 A 
HETATM    7  C   UNK     0     -60.803  57.379 106.649  0.00  0.00     0.281 C 
HETATM    8  O   UNK     0     -61.189  57.232 105.165  0.00  0.00    -0.189 OA
HETATM    9  O   UNK     0     -61.479  58.484 104.316  0.00  0.00    -0.196 OA
HETATM   10  C   UNK     0     -61.383  59.883 104.952  0.00  0.00     0.265 A 
HETATM   11  C   UNK     0     -61.673  61.135 104.103  0.00  0.00     0.231 A 
HETATM   12  O   UNK     0     -61.577  62.535 104.738  0.00  0.00    -0.216 OA
HETATM   13  C   UNK     0     -60.609  54.727 106.862  0.00  0.00     0.175 A 
HETATM   14  C   UNK     0     -60.995  54.579 105.379  0.00  0.00     0.075 A 
HETATM   15  O   UNK     0     -60.513  56.127 107.497  0.00  0.00    -0.336 OA
HETATM   16  C   UNK     0     -60.415  52.076 107.076  0.00  0.00     0.065 A 
HETATM   17  O   UNK     0     -60.801  51.928 105.592  0.00  0.00    -0.317 OA
HETATM   18  C   UNK     0     -60.319  53.475 107.711  0.00  0.00    -0.008 A 
HETATM   19  C   UNK     0     -61.091  53.180 104.743  0.00  0.00     0.072 A 
HETATM   20  C   UNK     0     -59.933  53.622 109.194  0.00  0.00     0.030 C 
HETATM   21  O   UNK     0     -62.155  59.589 101.984  0.00  0.00    -0.365 OA
HETATM   22  C   UNK     0     -62.058  60.988 102.620  0.00  0.00     0.149 A 
HETATM   23  C   UNK     0     -62.540  59.442 100.501  0.00  0.00     0.151 A 
HETATM   24  C   UNK     0     -62.830  60.693  99.653  0.00  0.00     0.021 A 
HETATM   25  C   UNK     0     -62.348  62.240 101.772  0.00  0.00     0.030 A 
HETATM   26  C   UNK     0     -62.734  62.093 100.288  0.00  0.00     0.004 A 
HETATM   27  C   UNK     0     -62.636  58.042  99.866  0.00  0.00     0.071 C 
HETATM   28  C   UNK     0     -63.022  57.894  98.382  0.00  0.00     0.066 C 
HETATM   29  C   UNK     0     -62.828  55.242  98.595  0.00  0.00     0.028 C 
HETATM   30  C   UNK     0     -63.118  56.494  97.747  0.00  0.00    -0.025 C 
HETATM   31  C   UNK     0     -63.504  56.347  96.263  0.00  0.00     0.028 C 
HETATM   32  C   UNK     0     -62.252  63.639 102.407  0.00  0.00     0.003 C 
HETATM   33  C   UNK     0     -61.477  53.033 103.259  0.00  0.00    -0.021 C 
HETATM   34  C   UNK     0     -61.767  54.284 102.411  0.00  0.00     0.028 C 
HETATM   35  C   UNK     0     -61.573  51.633 102.624  0.00  0.00     0.048 C 
HETATM   36  C   UNK     0     -61.958  51.485 101.140  0.00  0.00    -0.012 C 
HETATM   37  C   UNK     0     -62.248  52.738 100.292  0.00  0.00     0.029 C 
HETATM   38  C   UNK     0     -62.054  50.085 100.505  0.00  0.00     0.148 C 
HETATM   39  C   UNK     0     -62.440  49.938  99.022  0.00  0.00     0.144 A 
HETATM   40  O   UNK     0     -62.730  51.190  98.173  0.00  0.00    -0.322 OA
HETATM   41  O   UNK     0     -61.764  48.833 101.354  0.00  0.00    -0.189 OA
HETATM   42  C   UNK     0     -62.536  48.538  98.386  0.00  0.00     0.151 A 
HETATM   43  C   UNK     0     -63.610  54.955  95.591  0.00  0.00     0.030 C 
HETATM   44  C   UNK     0     -64.058  54.784  93.868  0.00  0.00    -0.026 C 
HETATM   45  C   UNK     0     -62.922  48.390  96.903  0.00  0.00     0.004 A 
HETATM   46  C   UNK     0     -63.208  49.689  96.079  0.00  0.00     0.002 A 
HETATM   47  C   UNK     0     -63.116  51.043  96.689  0.00  0.00     0.175 A 
HETATM   48  O   UNK     0     -62.246  47.287  99.235  0.00  0.00    -0.188 OA
HETATM   49  C   UNK     0     -64.141  53.493  93.302  0.00  0.00    -0.005 C 
HETATM   50  C   UNK     0     -63.812  52.254  94.299  0.00  0.00    -0.005 C 
HETATM   51  C   UNK     0     -63.689  50.567  94.435  0.00  0.00    -0.024 C 
HETATM   52  C   UNK     0     -63.004  46.987  96.317  0.00  0.00     0.033 C 
HETATM   53  O   UNK     0     -61.776  59.829 103.457  0.00  0.00     0.000 OA
HETATM   54  C   UNK     0     -63.974  49.703  93.192  0.00  0.00     0.031 C 
ENDROOT
BRANCH  16  55
HETATM   55  C   UNK     0     -60.125  50.823 107.924  0.00  0.00     0.072 A 
HETATM   56  C   UNK     0     -58.733  50.167 107.878  0.00  0.00     0.007 A 
HETATM   57  C   UNK     0     -58.443  48.915 108.726  0.00  0.00     0.056 A 
HETATM   58  C   UNK     0     -59.545  48.318 109.621  0.00  0.00     0.127 A 
HETATM   59  C   UNK     0     -60.938  48.974 109.667  0.00  0.00     0.093 A 
HETATM   60  O   UNK     0     -59.255  47.066 110.469  0.00  0.00    -0.193 OA
HETATM   61  C   UNK     0     -61.228  50.226 108.819  0.00  0.00     0.053 A 
BRANCH  59  62
HETATM   62  O   UNK     0     -62.041  48.378 110.561  0.00  0.00    -0.331 OA
HETATM   63  C   UNK     0     -62.047  48.670 112.073  0.00  0.00     0.181 C 
ENDBRANCH  59  62
ENDBRANCH  16  55
BRANCH  28  64
HETATM   64  O   UNK     0     -63.312  59.146  97.533  0.00  0.00    -0.333 OA
HETATM   65  C   UNK     0     -64.753  59.461  97.094  0.00  0.00     0.181 C 
ENDBRANCH  28  64
TORSDOF 3
ENDMDL
MODEL 5
REMARK VINA RESULT:      -9.2      3.474     10.785
REMARK  3 active torsions:
REMARK  status: ('A' for Active; 'I' for Inactive)
REMARK    1  A    between atoms: C_16  and  C_21 
REMARK    2  A    between atoms: C_24  and  O_62 
REMARK    3  A    between atoms: C_34  and  O_35 
ROOT
HETATM    1  C   UNK     0     -70.165  19.628  67.168  0.00  0.00     0.018 A 
HETATM    2  C   UNK     0     -71.169  20.778  67.367  0.00  0.00     0.166 A 
HETATM    3  C   UNK     0     -69.941  18.599  68.292  0.00  0.00     0.004 A 
HETATM    4  N   UNK     0     -71.949  20.899  68.690  0.00  0.00    -0.347 N 
HETATM    5  C   UNK     0     -70.721  18.720  69.614  0.00  0.00     0.024 A 
HETATM    6  C   UNK     0     -71.725  19.870  69.813  0.00  0.00     0.099 A 
HETATM    7  C   UNK     0     -71.393  21.808  66.244  0.00  0.00     0.281 C 
HETATM    8  O   UNK     0     -72.398  22.958  66.443  0.00  0.00    -0.189 OA
HETATM    9  O   UNK     0     -73.178  23.080  67.765  0.00  0.00    -0.196 OA
HETATM   10  C   UNK     0     -72.953  22.050  68.888  0.00  0.00     0.265 A 
HETATM   11  C   UNK     0     -73.734  22.172  70.211  0.00  0.00     0.231 A 
HETATM   12  O   UNK     0     -73.510  21.143  71.334  0.00  0.00    -0.216 OA
HETATM   13  C   UNK     0     -70.837  22.716  63.797  0.00  0.00     0.175 A 
HETATM   14  C   UNK     0     -71.841  23.866  63.996  0.00  0.00     0.075 A 
HETATM   15  O   UNK     0     -70.613  21.687  64.921  0.00  0.00    -0.336 OA
HETATM   16  C   UNK     0     -70.281  23.624  61.352  0.00  0.00     0.065 A 
HETATM   17  O   UNK     0     -71.286  24.774  61.551  0.00  0.00    -0.317 OA
HETATM   18  C   UNK     0     -70.057  22.595  62.476  0.00  0.00    -0.008 A 
HETATM   19  C   UNK     0     -72.066  24.896  62.874  0.00  0.00     0.072 A 
HETATM   20  C   UNK     0     -69.053  21.444  62.276  0.00  0.00     0.030 C 
HETATM   21  O   UNK     0     -74.963  24.352  69.287  0.00  0.00    -0.365 OA
HETATM   22  C   UNK     0     -74.738  23.322  70.409  0.00  0.00     0.149 A 
HETATM   23  C   UNK     0     -75.966  25.501  69.485  0.00  0.00     0.151 A 
HETATM   24  C   UNK     0     -76.746  25.623  70.807  0.00  0.00     0.021 A 
HETATM   25  C   UNK     0     -75.518  23.443  71.732  0.00  0.00     0.030 A 
HETATM   26  C   UNK     0     -76.522  24.593  71.931  0.00  0.00     0.004 A 
HETATM   27  C   UNK     0     -76.190  26.531  68.362  0.00  0.00     0.071 C 
HETATM   28  C   UNK     0     -77.195  27.682  68.561  0.00  0.00     0.066 C 
HETATM   29  C   UNK     0     -76.639  28.590  66.115  0.00  0.00     0.028 C 
HETATM   30  C   UNK     0     -77.419  28.711  67.437  0.00  0.00    -0.025 C 
HETATM   31  C   UNK     0     -78.423  29.862  67.636  0.00  0.00     0.028 C 
HETATM   32  C   UNK     0     -75.294  22.414  72.855  0.00  0.00     0.003 C 
HETATM   33  C   UNK     0     -73.071  26.047  63.073  0.00  0.00    -0.021 C 
HETATM   34  C   UNK     0     -73.850  26.168  64.394  0.00  0.00     0.028 C 
HETATM   35  C   UNK     0     -73.295  27.076  61.949  0.00  0.00     0.048 C 
HETATM   36  C   UNK     0     -74.299  28.227  62.148  0.00  0.00    -0.012 C 
HETATM   37  C   UNK     0     -75.079  28.348  63.470  0.00  0.00     0.029 C 
HETATM   38  C   UNK     0     -74.523  29.256  61.024  0.00  0.00     0.148 C 
HETATM   39  C   UNK     0     -75.527  30.406  61.223  0.00  0.00     0.144 A 
HETATM   40  O   UNK     0     -76.307  30.528  62.546  0.00  0.00    -0.322 OA
HETATM   41  O   UNK     0     -73.743  29.135  59.702  0.00  0.00    -0.189 OA
HETATM   42  C   UNK     0     -75.751  31.436  60.099  0.00  0.00     0.151 A 
HETATM   43  C   UNK     0     -78.674  30.915  66.528  0.00  0.00     0.030 C 
HETATM   44  C   UNK     0     -79.841  32.251  66.759  0.00  0.00    -0.026 C 
HETATM   45  C   UNK     0     -76.755  32.586  60.298  0.00  0.00     0.004 A 
HETATM   46  C   UNK     0     -77.526  32.671  61.657  0.00  0.00     0.002 A 
HETATM   47  C   UNK     0     -77.311  31.678  62.744  0.00  0.00     0.175 A 
HETATM   48  O   UNK     0     -74.971  31.314  58.778  0.00  0.00    -0.188 OA
HETATM   49  C   UNK     0     -80.034  33.186  65.719  0.00  0.00    -0.005 C 
HETATM   50  C   UNK     0     -79.152  32.950  64.375  0.00  0.00    -0.005 C 
HETATM   51  C   UNK     0     -78.799  33.527  62.819  0.00  0.00    -0.024 C 
HETATM   52  C   UNK     0     -76.944  33.580  59.161  0.00  0.00     0.033 C 
HETATM   53  O   UNK     0     -73.980  23.172  69.173  0.00  0.00     0.000 OA
HETATM   54  C   UNK     0     -79.526  34.789  62.316  0.00  0.00     0.031 C 
ENDROOT
BRANCH  16  55
HETATM   55  C   UNK     0     -69.501  23.503  60.030  0.00  0.00     0.072 A 
HETATM   56  C   UNK     0     -70.199  22.953  58.772  0.00  0.00     0.007 A 
HETATM   57  C   UNK     0     -69.419  22.832  57.449  0.00  0.00     0.056 A 
HETATM   58  C   UNK     0     -67.941  23.261  57.384  0.00  0.00     0.127 A 
HETATM   59  C   UNK     0     -67.243  23.810  58.642  0.00  0.00     0.093 A 
HETATM   60  O   UNK     0     -67.162  23.139  56.062  0.00  0.00    -0.193 OA
HETATM   61  C   UNK     0     -68.023  23.932  59.965  0.00  0.00     0.053 A 
BRANCH  59  62
HETATM   62  O   UNK     0     -65.766  24.239  58.578  0.00  0.00    -0.331 OA
HETATM   63  C   UNK     0     -65.118  24.952  59.780  0.00  0.00     0.181 C 
ENDBRANCH  59  62
ENDBRANCH  16  55
BRANCH  28  64
HETATM   64  O   UNK     0     -77.975  27.803  69.883  0.00  0.00    -0.333 OA
HETATM   65  C   UNK     0     -79.483  27.494  69.918  0.00  0.00     0.181 C 
ENDBRANCH  28  64
TORSDOF 3
ENDMDL
MODEL 6
REMARK VINA RESULT:      -9.2      3.427     10.714
REMARK  3 active torsions:
REMARK  status: ('A' for Active; 'I' for Inactive)
REMARK    1  A    between atoms: C_16  and  C_21 
REMARK    2  A    between atoms: C_24  and  O_62 
REMARK    3  A    between atoms: C_34  and  O_35 
ROOT
HETATM    1  C   UNK     0     -73.344  29.328  58.693  0.00  0.00     0.018 A 
HETATM    2  C   UNK     0     -74.039  29.409  60.065  0.00  0.00     0.166 A 
HETATM    3  C   UNK     0     -72.496  28.095  58.331  0.00  0.00     0.004 A 
HETATM    4  N   UNK     0     -73.884  28.257  61.076  0.00  0.00    -0.347 N 
HETATM    5  C   UNK     0     -72.341  26.943  59.341  0.00  0.00     0.024 A 
HETATM    6  C   UNK     0     -73.035  27.025  60.714  0.00  0.00     0.099 A 
HETATM    7  C   UNK     0     -74.887  30.642  60.427  0.00  0.00     0.281 C 
HETATM    8  O   UNK     0     -75.582  30.723  61.799  0.00  0.00    -0.189 OA
HETATM    9  O   UNK     0     -75.427  29.571  62.811  0.00  0.00    -0.196 OA
HETATM   10  C   UNK     0     -74.578  28.339  62.448  0.00  0.00     0.265 A 
HETATM   11  C   UNK     0     -74.424  27.187  63.459  0.00  0.00     0.231 A 
HETATM   12  O   UNK     0     -73.575  25.954  63.097  0.00  0.00    -0.216 OA
HETATM   13  C   UNK     0     -75.891  33.028  59.778  0.00  0.00     0.175 A 
HETATM   14  C   UNK     0     -76.585  33.109  61.150  0.00  0.00     0.075 A 
HETATM   15  O   UNK     0     -75.042  31.794  59.416  0.00  0.00    -0.336 OA
HETATM   16  C   UNK     0     -76.894  35.412  59.130  0.00  0.00     0.065 A 
HETATM   17  O   UNK     0     -77.589  35.493  60.502  0.00  0.00    -0.317 OA
HETATM   18  C   UNK     0     -76.046  34.179  58.768  0.00  0.00    -0.008 A 
HETATM   19  C   UNK     0     -77.434  34.341  61.513  0.00  0.00     0.072 A 
HETATM   20  C   UNK     0     -75.352  34.099  57.395  0.00  0.00     0.030 C 
HETATM   21  O   UNK     0     -75.967  28.501  65.194  0.00  0.00    -0.365 OA
HETATM   22  C   UNK     0     -75.118  27.268  64.831  0.00  0.00     0.149 A 
HETATM   23  C   UNK     0     -76.660  28.582  66.565  0.00  0.00     0.151 A 
HETATM   24  C   UNK     0     -76.506  27.430  67.575  0.00  0.00     0.021 A 
HETATM   25  C   UNK     0     -74.963  26.116  65.841  0.00  0.00     0.030 A 
HETATM   26  C   UNK     0     -75.657  26.197  67.213  0.00  0.00     0.004 A 
HETATM   27  C   UNK     0     -77.509  29.815  66.927  0.00  0.00     0.071 C 
HETATM   28  C   UNK     0     -78.204  29.896  68.300  0.00  0.00     0.066 C 
HETATM   29  C   UNK     0     -79.207  32.282  67.651  0.00  0.00     0.028 C 
HETATM   30  C   UNK     0     -79.053  31.129  68.662  0.00  0.00    -0.025 C 
HETATM   31  C   UNK     0     -79.747  31.211  70.034  0.00  0.00     0.028 C 
HETATM   32  C   UNK     0     -74.114  24.884  65.479  0.00  0.00     0.003 C 
HETATM   33  C   UNK     0     -78.128  34.422  62.886  0.00  0.00    -0.021 C 
HETATM   34  C   UNK     0     -77.974  33.271  63.896  0.00  0.00     0.028 C 
HETATM   35  C   UNK     0     -78.977  35.656  63.247  0.00  0.00     0.048 C 
HETATM   36  C   UNK     0     -79.671  35.737  64.620  0.00  0.00    -0.012 C 
HETATM   37  C   UNK     0     -79.517  34.585  65.630  0.00  0.00     0.029 C 
HETATM   38  C   UNK     0     -80.520  36.970  64.981  0.00  0.00     0.148 C 
HETATM   39  C   UNK     0     -81.214  37.051  66.354  0.00  0.00     0.144 A 
HETATM   40  O   UNK     0     -81.060  35.899  67.364  0.00  0.00    -0.322 OA
HETATM   41  O   UNK     0     -80.675  38.122  63.971  0.00  0.00    -0.189 OA
HETATM   42  C   UNK     0     -82.063  38.285  66.715  0.00  0.00     0.151 A 
HETATM   43  C   UNK     0     -80.608  32.435  70.432  0.00  0.00     0.030 C 
HETATM   44  C   UNK     0     -81.414  32.529  72.026  0.00  0.00    -0.026 C 
HETATM   45  C   UNK     0     -82.757  38.366  68.088  0.00  0.00     0.004 A 
HETATM   46  C   UNK     0     -82.573  37.173  69.083  0.00  0.00     0.002 A 
HETATM   47  C   UNK     0     -81.754  35.980  68.737  0.00  0.00     0.175 A 
HETATM   48  O   UNK     0     -82.218  39.436  65.705  0.00  0.00    -0.188 OA
HETATM   49  C   UNK     0     -82.189  33.667  72.341  0.00  0.00    -0.005 C 
HETATM   50  C   UNK     0     -82.274  34.812  71.192  0.00  0.00    -0.005 C 
HETATM   51  C   UNK     0     -82.912  36.329  70.779  0.00  0.00    -0.024 C 
HETATM   52  C   UNK     0     -83.586  39.604  68.402  0.00  0.00     0.033 C 
HETATM   53  O   UNK     0     -75.239  28.336  63.847  0.00  0.00     0.000 OA
HETATM   54  C   UNK     0     -83.800  37.061  71.804  0.00  0.00     0.031 C 
ENDROOT
BRANCH  16  55
HETATM   55  C   UNK     0     -77.049  36.564  58.119  0.00  0.00     0.072 A 
HETATM   56  C   UNK     0     -78.377  36.751  57.362  0.00  0.00     0.007 A 
HETATM   57  C   UNK     0     -78.532  37.903  56.351  0.00  0.00     0.056 A 
HETATM   58  C   UNK     0     -77.359  38.868  56.098  0.00  0.00     0.127 A 
HETATM   59  C   UNK     0     -76.031  38.682  56.855  0.00  0.00     0.093 A 
HETATM   60  O   UNK     0     -77.514  40.020  55.088  0.00  0.00    -0.193 OA
HETATM   61  C   UNK     0     -75.876  37.530  57.866  0.00  0.00     0.053 A 
BRANCH  59  62
HETATM   62  O   UNK     0     -74.858  39.647  56.603  0.00  0.00    -0.331 OA
HETATM   63  C   UNK     0     -74.674  40.886  57.498  0.00  0.00     0.181 C 
ENDBRANCH  59  62
ENDBRANCH  16  55
BRANCH  28  64
HETATM   64  O   UNK     0     -78.049  28.744  69.310  0.00  0.00    -0.333 OA
HETATM   65  C   UNK     0     -79.239  27.813  69.604  0.00  0.00     0.181 C 
ENDBRANCH  28  64
TORSDOF 3
ENDMDL
MODEL 7
REMARK VINA RESULT:      -9.1     38.947     44.133
REMARK  3 active torsions:
REMARK  status: ('A' for Active; 'I' for Inactive)
REMARK    1  A    between atoms: C_16  and  C_21 
REMARK    2  A    between atoms: C_24  and  O_62 
REMARK    3  A    between atoms: C_34  and  O_35 
ROOT
HETATM    1  C   UNK     0     -60.999  51.565 104.868  0.00  0.00     0.018 A 
HETATM    2  C   UNK     0     -61.299  52.726 103.901  0.00  0.00     0.166 A 
HETATM    3  C   UNK     0     -60.616  51.860 106.330  0.00  0.00     0.004 A 
HETATM    4  N   UNK     0     -61.217  54.182 104.398  0.00  0.00    -0.347 N 
HETATM    5  C   UNK     0     -60.534  53.315 106.826  0.00  0.00     0.024 A 
HETATM    6  C   UNK     0     -60.835  54.476 105.859  0.00  0.00     0.099 A 
HETATM    7  C   UNK     0     -61.682  52.431 102.439  0.00  0.00     0.281 C 
HETATM    8  O   UNK     0     -61.983  53.592 101.473  0.00  0.00    -0.189 OA
HETATM    9  O   UNK     0     -61.901  55.048 101.968  0.00  0.00    -0.196 OA
HETATM   10  C   UNK     0     -61.518  55.342 103.431  0.00  0.00     0.265 A 
HETATM   11  C   UNK     0     -61.436  56.798 103.926  0.00  0.00     0.231 A 
HETATM   12  O   UNK     0     -61.053  57.093 105.389  0.00  0.00    -0.216 OA
HETATM   13  C   UNK     0     -62.147  50.680 100.480  0.00  0.00     0.175 A 
HETATM   14  C   UNK     0     -62.447  51.841  99.514  0.00  0.00     0.075 A 
HETATM   15  O   UNK     0     -61.764  50.975 101.943  0.00  0.00    -0.336 OA
HETATM   16  C   UNK     0     -62.612  48.930  98.522  0.00  0.00     0.065 A 
HETATM   17  O   UNK     0     -62.912  50.091  97.556  0.00  0.00    -0.317 OA
HETATM   18  C   UNK     0     -62.229  49.225  99.985  0.00  0.00    -0.008 A 
HETATM   19  C   UNK     0     -62.830  51.547  98.051  0.00  0.00     0.072 A 
HETATM   20  C   UNK     0     -61.928  48.063 100.950  0.00  0.00     0.030 C 
HETATM   21  O   UNK     0     -62.119  57.665 101.498  0.00  0.00    -0.365 OA
HETATM   22  C   UNK     0     -61.736  57.959 102.961  0.00  0.00     0.149 A 
HETATM   23  C   UNK     0     -62.419  58.825 100.533  0.00  0.00     0.151 A 
HETATM   24  C   UNK     0     -62.337  60.280 101.028  0.00  0.00     0.021 A 
HETATM   25  C   UNK     0     -61.654  59.414 103.457  0.00  0.00     0.030 A 
HETATM   26  C   UNK     0     -61.955  60.575 102.491  0.00  0.00     0.004 A 
HETATM   27  C   UNK     0     -62.802  58.530  99.070  0.00  0.00     0.071 C 
HETATM   28  C   UNK     0     -63.103  59.692  98.103  0.00  0.00     0.066 C 
HETATM   29  C   UNK     0     -63.568  57.941  96.144  0.00  0.00     0.028 C 
HETATM   30  C   UNK     0     -63.486  59.397  96.641  0.00  0.00    -0.025 C 
HETATM   31  C   UNK     0     -63.786  60.558  95.674  0.00  0.00     0.028 C 
HETATM   32  C   UNK     0     -61.272  59.709 104.919  0.00  0.00     0.003 C 
HETATM   33  C   UNK     0     -63.131  52.708  97.085  0.00  0.00    -0.021 C 
HETATM   34  C   UNK     0     -63.049  54.163  97.581  0.00  0.00     0.028 C 
HETATM   35  C   UNK     0     -63.513  52.413  95.623  0.00  0.00     0.048 C 
HETATM   36  C   UNK     0     -63.814  53.574  94.656  0.00  0.00    -0.012 C 
HETATM   37  C   UNK     0     -63.732  55.030  95.153  0.00  0.00     0.029 C 
HETATM   38  C   UNK     0     -64.197  53.279  93.194  0.00  0.00     0.148 C 
HETATM   39  C   UNK     0     -64.497  54.440  92.228  0.00  0.00     0.144 A 
HETATM   40  O   UNK     0     -64.415  55.896  92.724  0.00  0.00    -0.322 OA
HETATM   41  O   UNK     0     -64.279  51.823  92.698  0.00  0.00    -0.189 OA
HETATM   42  C   UNK     0     -64.880  54.145  90.765  0.00  0.00     0.151 A 
HETATM   43  C   UNK     0     -64.174  60.299  94.198  0.00  0.00     0.030 C 
HETATM   44  C   UNK     0     -64.523  61.647  93.075  0.00  0.00    -0.026 C 
HETATM   45  C   UNK     0     -65.181  55.306  89.799  0.00  0.00     0.004 A 
HETATM   46  C   UNK     0     -65.085  56.769  90.346  0.00  0.00     0.002 A 
HETATM   47  C   UNK     0     -64.716  57.057  91.758  0.00  0.00     0.175 A 
HETATM   48  O   UNK     0     -64.962  52.690  90.270  0.00  0.00    -0.188 OA
HETATM   49  C   UNK     0     -64.873  61.359  91.738  0.00  0.00    -0.005 C 
HETATM   50  C   UNK     0     -64.925  59.785  91.338  0.00  0.00    -0.005 C 
HETATM   51  C   UNK     0     -65.220  58.672  90.092  0.00  0.00    -0.024 C 
HETATM   52  C   UNK     0     -65.555  54.967  88.362  0.00  0.00     0.033 C 
HETATM   53  O   UNK     0     -61.803  56.567 102.531  0.00  0.00     0.000 OA
HETATM   54  C   UNK     0     -65.613  59.206  88.701  0.00  0.00     0.031 C 
ENDROOT
BRANCH  16  55
HETATM   55  C   UNK     0     -62.694  47.474  98.026  0.00  0.00     0.072 A 
HETATM   56  C   UNK     0     -64.017  46.695  98.140  0.00  0.00     0.007 A 
HETATM   57  C   UNK     0     -64.100  45.239  97.644  0.00  0.00     0.056 A 
HETATM   58  C   UNK     0     -62.858  44.563  97.033  0.00  0.00     0.127 A 
HETATM   59  C   UNK     0     -61.535  45.341  96.919  0.00  0.00     0.093 A 
HETATM   60  O   UNK     0     -62.941  43.108  96.537  0.00  0.00    -0.193 OA
HETATM   61  C   UNK     0     -61.452  46.797  97.415  0.00  0.00     0.053 A 
BRANCH  59  62
HETATM   62  O   UNK     0     -60.294  44.665  96.308  0.00  0.00    -0.331 OA
HETATM   63  C   UNK     0     -59.009  45.482  96.073  0.00  0.00     0.181 C 
ENDBRANCH  59  62
ENDBRANCH  16  55
BRANCH  28  64
HETATM   64  O   UNK     0     -63.021  61.148  98.599  0.00  0.00    -0.333 OA
HETATM   65  C   UNK     0     -64.308  61.968  98.794  0.00  0.00     0.181 C 
ENDBRANCH  28  64
TORSDOF 3
ENDMDL
MODEL 8
REMARK VINA RESULT:      -9.0      2.342     10.233
REMARK  3 active torsions:
REMARK  status: ('A' for Active; 'I' for Inactive)
REMARK    1  A    between atoms: C_16  and  C_21 
REMARK    2  A    between atoms: C_24  and  O_62 
REMARK    3  A    between atoms: C_34  and  O_35 
ROOT
HETATM    1  C   UNK     0     -78.124  34.966  60.767  0.00  0.00     0.018 A 
HETATM    2  C   UNK     0     -77.725  33.751  61.625  0.00  0.00     0.166 A 
HETATM    3  C   UNK     0     -77.617  35.085  59.318  0.00  0.00     0.004 A 
HETATM    4  N   UNK     0     -76.820  32.655  61.034  0.00  0.00    -0.347 N 
HETATM    5  C   UNK     0     -76.712  33.989  58.727  0.00  0.00     0.024 A 
HETATM    6  C   UNK     0     -76.313  32.774  59.585  0.00  0.00     0.099 A 
HETATM    7  C   UNK     0     -78.232  33.633  63.075  0.00  0.00     0.281 C 
HETATM    8  O   UNK     0     -77.834  32.418  63.933  0.00  0.00    -0.189 OA
HETATM    9  O   UNK     0     -76.928  31.321  63.342  0.00  0.00    -0.196 OA
HETATM   10  C   UNK     0     -76.421  31.440  61.893  0.00  0.00     0.265 A 
HETATM   11  C   UNK     0     -75.515  30.343  61.302  0.00  0.00     0.231 A 
HETATM   12  O   UNK     0     -75.008  30.462  59.852  0.00  0.00    -0.216 OA
HETATM   13  C   UNK     0     -79.645  34.611  65.116  0.00  0.00     0.175 A 
HETATM   14  C   UNK     0     -79.246  33.396  65.974  0.00  0.00     0.075 A 
HETATM   15  O   UNK     0     -79.138  34.729  63.667  0.00  0.00    -0.336 OA
HETATM   16  C   UNK     0     -81.057  35.588  67.157  0.00  0.00     0.065 A 
HETATM   17  O   UNK     0     -80.658  34.373  68.015  0.00  0.00    -0.317 OA
HETATM   18  C   UNK     0     -80.550  35.707  65.707  0.00  0.00    -0.008 A 
HETATM   19  C   UNK     0     -79.752  33.276  67.424  0.00  0.00     0.072 A 
HETATM   20  C   UNK     0     -80.949  36.922  64.850  0.00  0.00     0.030 C 
HETATM   21  O   UNK     0     -75.623  29.009  63.609  0.00  0.00    -0.365 OA
HETATM   22  C   UNK     0     -75.117  29.129  62.159  0.00  0.00     0.149 A 
HETATM   23  C   UNK     0     -75.225  27.795  64.466  0.00  0.00     0.151 A 
HETATM   24  C   UNK     0     -74.320  26.699  63.875  0.00  0.00     0.021 A 
HETATM   25  C   UNK     0     -74.211  28.032  61.568  0.00  0.00     0.030 A 
HETATM   26  C   UNK     0     -73.813  26.817  62.426  0.00  0.00     0.004 A 
HETATM   27  C   UNK     0     -75.732  27.676  65.916  0.00  0.00     0.071 C 
HETATM   28  C   UNK     0     -75.333  26.460  66.774  0.00  0.00     0.066 C 
HETATM   29  C   UNK     0     -76.745  27.438  68.816  0.00  0.00     0.028 C 
HETATM   30  C   UNK     0     -75.840  26.342  68.224  0.00  0.00    -0.025 C 
HETATM   31  C   UNK     0     -75.441  25.127  69.082  0.00  0.00     0.028 C 
HETATM   32  C   UNK     0     -73.705  28.151  60.119  0.00  0.00     0.003 C 
HETATM   33  C   UNK     0     -79.354  32.061  68.282  0.00  0.00    -0.021 C 
HETATM   34  C   UNK     0     -78.449  30.965  67.691  0.00  0.00     0.028 C 
HETATM   35  C   UNK     0     -79.861  31.942  69.731  0.00  0.00     0.048 C 
HETATM   36  C   UNK     0     -79.462  30.727  70.589  0.00  0.00    -0.012 C 
HETATM   37  C   UNK     0     -78.556  29.631  69.998  0.00  0.00     0.029 C 
HETATM   38  C   UNK     0     -79.969  30.609  72.039  0.00  0.00     0.148 C 
HETATM   39  C   UNK     0     -79.570  29.394  72.897  0.00  0.00     0.144 A 
HETATM   40  O   UNK     0     -78.664  28.297  72.306  0.00  0.00    -0.322 OA
HETATM   41  O   UNK     0     -80.875  31.705  72.631  0.00  0.00    -0.189 OA
HETATM   42  C   UNK     0     -80.077  29.275  74.347  0.00  0.00     0.151 A 
HETATM   43  C   UNK     0     -75.932  24.975  70.543  0.00  0.00     0.030 C 
HETATM   44  C   UNK     0     -75.469  23.563  71.540  0.00  0.00    -0.026 C 
HETATM   45  C   UNK     0     -79.678  28.060  75.205  0.00  0.00     0.004 A 
HETATM   46  C   UNK     0     -78.757  26.970  74.563  0.00  0.00     0.002 A 
HETATM   47  C   UNK     0     -78.266  27.082  73.164  0.00  0.00     0.175 A 
HETATM   48  O   UNK     0     -80.982  30.371  74.938  0.00  0.00    -0.188 OA
HETATM   49  C   UNK     0     -75.942  23.470  72.867  0.00  0.00    -0.005 C 
HETATM   50  C   UNK     0     -76.889  24.689  73.373  0.00  0.00    -0.005 C 
HETATM   51  C   UNK     0     -77.787  25.311  74.671  0.00  0.00    -0.024 C 
HETATM   52  C   UNK     0     -80.203  27.985  76.632  0.00  0.00     0.033 C 
HETATM   53  O   UNK     0     -75.972  30.188  62.681  0.00  0.00     0.000 OA
HETATM   54  C   UNK     0     -77.829  24.516  75.990  0.00  0.00     0.031 C 
ENDROOT
BRANCH  16  55
HETATM   55  C   UNK     0     -81.963  36.685  67.748  0.00  0.00     0.072 A 
HETATM   56  C   UNK     0     -81.339  37.962  68.340  0.00  0.00     0.007 A 
HETATM   57  C   UNK     0     -82.245  39.059  68.931  0.00  0.00     0.056 A 
HETATM   58  C   UNK     0     -83.774  38.878  68.931  0.00  0.00     0.127 A 
HETATM   59  C   UNK     0     -84.398  37.600  68.340  0.00  0.00     0.093 A 
HETATM   60  O   UNK     0     -84.679  39.974  69.523  0.00  0.00    -0.193 OA
HETATM   61  C   UNK     0     -83.492  36.503  67.748  0.00  0.00     0.053 A 
BRANCH  59  62
HETATM   62  O   UNK     0     -85.927  37.418  68.340  0.00  0.00    -0.331 OA
HETATM   63  C   UNK     0     -86.652  36.998  69.632  0.00  0.00     0.181 C 
ENDBRANCH  59  62
ENDBRANCH  16  55
BRANCH  28  64
HETATM   64  O   UNK     0     -74.427  25.364  66.183  0.00  0.00    -0.333 OA
HETATM   65  C   UNK     0     -75.013  23.982  65.844  0.00  0.00     0.181 C 
ENDBRANCH  28  64
TORSDOF 3
ENDMDL
MODEL 9
REMARK VINA RESULT:      -8.9      2.935      9.827
REMARK  3 active torsions:
REMARK  status: ('A' for Active; 'I' for Inactive)
REMARK    1  A    between atoms: C_16  and  C_21 
REMARK    2  A    between atoms: C_24  and  O_62 
REMARK    3  A    between atoms: C_34  and  O_35 
ROOT
HETATM    1  C   UNK     0     -70.964  23.563  61.824  0.00  0.00     0.018 A 
HETATM    2  C   UNK     0     -71.619  23.676  63.213  0.00  0.00     0.166 A 
HETATM    3  C   UNK     0     -69.968  22.425  61.533  0.00  0.00     0.004 A 
HETATM    4  N   UNK     0     -71.278  22.651  64.311  0.00  0.00    -0.347 N 
HETATM    5  C   UNK     0     -69.628  21.401  62.630  0.00  0.00     0.024 A 
HETATM    6  C   UNK     0     -70.283  21.514  64.019  0.00  0.00     0.099 A 
HETATM    7  C   UNK     0     -72.615  24.815  63.505  0.00  0.00     0.281 C 
HETATM    8  O   UNK     0     -73.270  24.928  64.894  0.00  0.00    -0.189 OA
HETATM    9  O   UNK     0     -72.930  23.903  65.992  0.00  0.00    -0.196 OA
HETATM   10  C   UNK     0     -71.934  22.765  65.700  0.00  0.00     0.265 A 
HETATM   11  C   UNK     0     -71.594  21.740  66.798  0.00  0.00     0.231 A 
HETATM   12  O   UNK     0     -70.598  20.602  66.507  0.00  0.00    -0.216 OA
HETATM   13  C   UNK     0     -73.952  26.978  62.698  0.00  0.00     0.175 A 
HETATM   14  C   UNK     0     -74.607  27.091  64.087  0.00  0.00     0.075 A 
HETATM   15  O   UNK     0     -72.956  25.840  62.407  0.00  0.00    -0.336 OA
HETATM   16  C   UNK     0     -75.288  29.141  61.892  0.00  0.00     0.065 A 
HETATM   17  O   UNK     0     -75.943  29.254  63.281  0.00  0.00    -0.317 OA
HETATM   18  C   UNK     0     -74.292  28.003  61.601  0.00  0.00    -0.008 A 
HETATM   19  C   UNK     0     -75.603  28.229  64.380  0.00  0.00     0.072 A 
HETATM   20  C   UNK     0     -73.638  27.891  60.211  0.00  0.00     0.030 C 
HETATM   21  O   UNK     0     -73.244  22.990  68.479  0.00  0.00    -0.365 OA
HETATM   22  C   UNK     0     -72.248  21.853  68.187  0.00  0.00     0.149 A 
HETATM   23  C   UNK     0     -73.899  23.103  69.868  0.00  0.00     0.151 A 
HETATM   24  C   UNK     0     -73.558  22.079  70.965  0.00  0.00     0.021 A 
HETATM   25  C   UNK     0     -71.907  20.827  69.284  0.00  0.00     0.030 A 
HETATM   26  C   UNK     0     -72.562  20.941  70.674  0.00  0.00     0.004 A 
HETATM   27  C   UNK     0     -74.895  24.242  70.159  0.00  0.00     0.071 C 
HETATM   28  C   UNK     0     -75.550  24.355  71.549  0.00  0.00     0.066 C 
HETATM   29  C   UNK     0     -76.887  26.518  70.743  0.00  0.00     0.028 C 
HETATM   30  C   UNK     0     -76.546  25.493  71.840  0.00  0.00    -0.025 C 
HETATM   31  C   UNK     0     -77.201  25.606  73.229  0.00  0.00     0.028 C 
HETATM   32  C   UNK     0     -70.912  19.690  68.993  0.00  0.00     0.003 C 
HETATM   33  C   UNK     0     -76.258  28.342  65.769  0.00  0.00    -0.021 C 
HETATM   34  C   UNK     0     -75.918  27.317  66.867  0.00  0.00     0.028 C 
HETATM   35  C   UNK     0     -77.254  29.480  66.060  0.00  0.00     0.048 C 
HETATM   36  C   UNK     0     -77.909  29.593  67.450  0.00  0.00    -0.012 C 
HETATM   37  C   UNK     0     -77.568  28.568  68.547  0.00  0.00     0.029 C 
HETATM   38  C   UNK     0     -78.905  30.731  67.741  0.00  0.00     0.148 C 
HETATM   39  C   UNK     0     -79.560  30.844  69.130  0.00  0.00     0.144 A 
HETATM   40  O   UNK     0     -79.219  29.819  70.228  0.00  0.00    -0.322 OA
HETATM   41  O   UNK     0     -79.246  31.757  66.643  0.00  0.00    -0.189 OA
HETATM   42  C   UNK     0     -80.556  31.983  69.422  0.00  0.00     0.151 A 
HETATM   43  C   UNK     0     -78.207  26.737  73.558  0.00  0.00     0.030 C 
HETATM   44  C   UNK     0     -78.968  26.868  75.172  0.00  0.00    -0.026 C 
HETATM   45  C   UNK     0     -81.211  32.096  70.811  0.00  0.00     0.004 A 
HETATM   46  C   UNK     0     -80.836  31.033  71.896  0.00  0.00     0.002 A 
HETATM   47  C   UNK     0     -79.874  29.932  71.617  0.00  0.00     0.175 A 
HETATM   48  O   UNK     0     -80.896  33.007  68.324  0.00  0.00    -0.188 OA
HETATM   49  C   UNK     0     -79.879  27.918  75.422  0.00  0.00    -0.005 C 
HETATM   50  C   UNK     0     -80.154  28.933  74.184  0.00  0.00    -0.005 C 
HETATM   51  C   UNK     0     -81.004  30.309  73.671  0.00  0.00    -0.024 C 
HETATM   52  C   UNK     0     -82.189  33.237  71.054  0.00  0.00     0.033 C 
HETATM   53  O   UNK     0     -72.544  22.802  67.121  0.00  0.00     0.000 OA
HETATM   54  C   UNK     0     -81.950  31.007  74.667  0.00  0.00     0.031 C 
ENDROOT
BRANCH  16  55
HETATM   55  C   UNK     0     -75.629  30.166  60.794  0.00  0.00     0.072 A 
HETATM   56  C   UNK     0     -76.674  29.822  59.717  0.00  0.00     0.007 A 
HETATM   57  C   UNK     0     -77.015  30.847  58.619  0.00  0.00     0.056 A 
HETATM   58  C   UNK     0     -76.311  32.217  58.599  0.00  0.00     0.127 A 
HETATM   59  C   UNK     0     -75.266  32.561  59.676  0.00  0.00     0.093 A 
HETATM   60  O   UNK     0     -76.652  33.241  57.501  0.00  0.00    -0.193 OA
HETATM   61  C   UNK     0     -74.925  31.536  60.774  0.00  0.00     0.053 A 
BRANCH  59  62
HETATM   62  O   UNK     0     -74.562  33.930  59.657  0.00  0.00    -0.331 OA
HETATM   63  C   UNK     0     -75.358  35.210  59.978  0.00  0.00     0.181 C 
ENDBRANCH  59  62
ENDBRANCH  16  55
BRANCH  28  64
HETATM   64  O   UNK     0     -75.209  23.329  72.647  0.00  0.00    -0.333 OA
HETATM   65  C   UNK     0     -76.255  22.285  73.075  0.00  0.00     0.181 C 
ENDBRANCH  28  64
TORSDOF 3
ENDMDL
MODEL 10
REMARK VINA RESULT:      -8.9      3.531     13.491
REMARK  3 active torsions:
REMARK  status: ('A' for Active; 'I' for Inactive)
REMARK    1  A    between atoms: C_16  and  C_21 
REMARK    2  A    between atoms: C_24  and  O_62 
REMARK    3  A    between atoms: C_34  and  O_35 
ROOT
HETATM    1  C   UNK     0     -72.149  20.178  70.574  0.00  0.00     0.018 A 
HETATM    2  C   UNK     0     -72.256  21.066  69.320  0.00  0.00     0.166 A 
HETATM    3  C   UNK     0     -71.210  18.957  70.575  0.00  0.00     0.004 A 
HETATM    4  N   UNK     0     -71.425  20.732  68.067  0.00  0.00    -0.347 N 
HETATM    5  C   UNK     0     -70.379  18.624  69.322  0.00  0.00     0.024 A 
HETATM    6  C   UNK     0     -70.487  19.512  68.068  0.00  0.00     0.099 A 
HETATM    7  C   UNK     0     -73.195  22.287  69.319  0.00  0.00     0.281 C 
HETATM    8  O   UNK     0     -73.303  23.174  68.065  0.00  0.00    -0.189 OA
HETATM    9  O   UNK     0     -72.471  22.841  66.811  0.00  0.00    -0.196 OA
HETATM   10  C   UNK     0     -71.533  21.620  66.813  0.00  0.00     0.265 A 
HETATM   11  C   UNK     0     -70.702  21.287  65.559  0.00  0.00     0.231 A 
HETATM   12  O   UNK     0     -69.763  20.066  65.560  0.00  0.00    -0.216 OA
HETATM   13  C   UNK     0     -74.965  23.842  70.571  0.00  0.00     0.175 A 
HETATM   14  C   UNK     0     -75.073  24.729  69.317  0.00  0.00     0.075 A 
HETATM   15  O   UNK     0     -74.026  22.621  70.572  0.00  0.00    -0.336 OA
HETATM   16  C   UNK     0     -76.735  25.396  71.822  0.00  0.00     0.065 A 
HETATM   17  O   UNK     0     -76.842  26.283  70.568  0.00  0.00    -0.317 OA
HETATM   18  C   UNK     0     -75.796  24.175  71.823  0.00  0.00    -0.008 A 
HETATM   19  C   UNK     0     -76.011  25.950  69.315  0.00  0.00     0.072 A 
HETATM   20  C   UNK     0     -75.689  23.288  73.078  0.00  0.00     0.030 C 
HETATM   21  O   UNK     0     -71.747  23.395  64.304  0.00  0.00    -0.365 OA
HETATM   22  C   UNK     0     -70.809  22.174  64.306  0.00  0.00     0.149 A 
HETATM   23  C   UNK     0     -71.855  24.282  63.051  0.00  0.00     0.151 A 
HETATM   24  C   UNK     0     -71.024  23.949  61.798  0.00  0.00     0.021 A 
HETATM   25  C   UNK     0     -69.978  21.840  63.053  0.00  0.00     0.030 A 
HETATM   26  C   UNK     0     -70.085  22.728  61.799  0.00  0.00     0.004 A 
HETATM   27  C   UNK     0     -72.794  25.503  63.050  0.00  0.00     0.071 C 
HETATM   28  C   UNK     0     -72.901  26.391  61.795  0.00  0.00     0.066 C 
HETATM   29  C   UNK     0     -74.671  27.946  63.047  0.00  0.00     0.028 C 
HETATM   30  C   UNK     0     -73.840  27.612  61.794  0.00  0.00    -0.025 C 
HETATM   31  C   UNK     0     -73.948  28.499  60.540  0.00  0.00     0.028 C 
HETATM   32  C   UNK     0     -69.040  20.620  63.055  0.00  0.00     0.003 C 
HETATM   33  C   UNK     0     -76.118  26.838  68.061  0.00  0.00    -0.021 C 
HETATM   34  C   UNK     0     -75.288  26.504  66.808  0.00  0.00     0.028 C 
HETATM   35  C   UNK     0     -77.057  28.059  68.060  0.00  0.00     0.048 C 
HETATM   36  C   UNK     0     -77.165  28.946  66.806  0.00  0.00    -0.012 C 
HETATM   37  C   UNK     0     -76.333  28.612  65.553  0.00  0.00     0.029 C 
HETATM   38  C   UNK     0     -78.104  30.167  66.805  0.00  0.00     0.148 C 
HETATM   39  C   UNK     0     -78.211  31.055  65.551  0.00  0.00     0.144 A 
HETATM   40  O   UNK     0     -77.380  30.721  64.298  0.00  0.00    -0.322 OA
HETATM   41  O   UNK     0     -78.935  30.501  68.058  0.00  0.00    -0.189 OA
HETATM   42  C   UNK     0     -79.150  32.276  65.550  0.00  0.00     0.151 A 
HETATM   43  C   UNK     0     -74.881  29.735  60.503  0.00  0.00     0.030 C 
HETATM   44  C   UNK     0     -75.006  30.766  59.047  0.00  0.00    -0.026 C 
HETATM   45  C   UNK     0     -79.257  33.163  64.296  0.00  0.00     0.004 A 
HETATM   46  C   UNK     0     -78.395  32.787  63.046  0.00  0.00     0.002 A 
HETATM   47  C   UNK     0     -77.487  31.608  63.044  0.00  0.00     0.175 A 
HETATM   48  O   UNK     0     -79.981  32.609  66.802  0.00  0.00    -0.188 OA
HETATM   49  C   UNK     0     -75.872  31.881  59.063  0.00  0.00    -0.005 C 
HETATM   50  C   UNK     0     -76.693  32.126  60.443  0.00  0.00    -0.005 C 
HETATM   51  C   UNK     0     -77.819  33.115  61.239  0.00  0.00    -0.024 C 
HETATM   52  C   UNK     0     -80.198  34.359  64.340  0.00  0.00     0.033 C 
HETATM   53  O   UNK     0     -71.578  22.455  65.512  0.00  0.00     0.000 OA
HETATM   54  C   UNK     0     -78.403  34.325  60.485  0.00  0.00     0.031 C 
ENDROOT
BRANCH  16  55
HETATM   55  C   UNK     0     -77.566  25.729  73.075  0.00  0.00     0.072 A 
HETATM   56  C   UNK     0     -78.851  24.937  73.380  0.00  0.00     0.007 A 
HETATM   57  C   UNK     0     -79.682  25.271  74.633  0.00  0.00     0.056 A 
HETATM   58  C   UNK     0     -79.229  26.397  75.581  0.00  0.00     0.127 A 
HETATM   59  C   UNK     0     -77.943  27.189  75.277  0.00  0.00     0.093 A 
HETATM   60  O   UNK     0     -80.060  26.730  76.834  0.00  0.00    -0.193 OA
HETATM   61  C   UNK     0     -77.112  26.855  74.024  0.00  0.00     0.053 A 
BRANCH  59  62
HETATM   62  O   UNK     0     -77.489  28.314  76.224  0.00  0.00    -0.331 OA
HETATM   63  C   UNK     0     -76.203  28.149  77.055  0.00  0.00     0.181 C 
ENDBRANCH  59  62
ENDBRANCH  16  55
BRANCH  28  64
HETATM   64  O   UNK     0     -72.070  26.057  60.542  0.00  0.00    -0.333 OA
HETATM   65  C   UNK     0     -72.763  25.506  59.283  0.00  0.00     0.181 C 
ENDBRANCH  28  64
TORSDOF 3
ENDMDL
