MODEL 1
REMARK VINA RESULT:      -7.0      0.000      0.000
REMARK  2 active torsions:
REMARK  status: ('A' for Active; 'I' for Inactive)
REMARK    1  A    between atoms: S_1  and  O_7 
REMARK    2  A    between atoms: O_7  and  C_18 
ROOT
HETATM    1  O   UNK     0     -40.427  30.568  69.305  0.00  0.00    -0.342 OA
HETATM    2  O   UNK     0     -42.050  27.190  68.092  0.00  0.00     0.000 OA
HETATM    3  O   UNK     0     -40.047  29.030  67.398  0.00  0.00    -0.329 OA
HETATM    4  O   UNK     0     -42.988  29.837  71.720  0.00  0.00    -0.343 OA
HETATM    5  O   UNK     0     -44.373  27.796  71.478  0.00  0.00    -0.344 OA
HETATM    6  C   UNK     0     -41.425  29.413  69.427  0.00  0.00     0.202 A 
HETATM    7  C   UNK     0     -42.522  29.100  70.462  0.00  0.00     0.187 A 
HETATM    8  C   UNK     0     -41.189  28.458  68.243  0.00  0.00     0.185 A 
HETATM    9  C   UNK     0     -43.383  27.832  70.311  0.00  0.00     0.168 A 
HETATM   10  C   UNK     0     -43.146  26.877  69.126  0.00  0.00     0.024 A 
HETATM   11  C   UNK     0     -39.578  30.332  68.054  0.00  0.00     0.187 A 
HETATM   12  C   UNK     0     -44.130  29.033  72.347  0.00  0.00     0.186 A 
HETATM   13  C   UNK     0     -40.952  27.503  67.057  0.00  0.00     0.143 A 
HETATM   14  C   UNK     0     -38.524  30.509  66.945  0.00  0.00     0.061 C 
HETATM   15  C   UNK     0     -38.801  31.632  68.337  0.00  0.00     0.061 C 
HETATM   16  C   UNK     0     -44.247  30.078  73.472  0.00  0.00     0.061 C 
HETATM   17  C   UNK     0     -45.259  28.588  73.295  0.00  0.00     0.061 C 
ENDROOT
BRANCH  13  18
HETATM   18  O   UNK     0     -39.855  27.816  66.023  0.00  0.00    -0.212 OA
BRANCH  18  19
HETATM   19  S   UNK     0     -39.797  27.029  64.700  0.00  0.00     0.406 S 
HETATM   20  O   UNK     0     -40.104  28.320  63.918  0.00  0.00    -0.172 OA
HETATM   21  O   UNK     0     -39.489  25.738  65.482  0.00  0.00    -0.172 OA
HETATM   22  N   UNK     0     -39.738  26.242  63.378  0.00  0.00    -0.021 N 
ENDBRANCH  18  19
ENDBRANCH  13  18
TORSDOF 2
ENDMDL
MODEL 2
REMARK VINA RESULT:      -6.6     28.899     31.291
REMARK  2 active torsions:
REMARK  status: ('A' for Active; 'I' for Inactive)
REMARK    1  A    between atoms: S_1  and  O_7 
REMARK    2  A    between atoms: O_7  and  C_18 
ROOT
HETATM    1  O   UNK     0     -64.256  23.569  86.593  0.00  0.00    -0.342 OA
HETATM    2  O   UNK     0     -68.030  22.691  85.884  0.00  0.00     0.000 OA
HETATM    3  O   UNK     0     -65.437  22.091  84.991  0.00  0.00    -0.329 OA
HETATM    4  O   UNK     0     -66.132  25.509  88.967  0.00  0.00    -0.343 OA
HETATM    5  O   UNK     0     -68.606  25.370  89.002  0.00  0.00    -0.344 OA
HETATM    6  C   UNK     0     -65.759  23.696  86.857  0.00  0.00     0.202 A 
HETATM    7  C   UNK     0     -66.562  24.527  87.874  0.00  0.00     0.187 A 
HETATM    8  C   UNK     0     -66.492  22.778  85.863  0.00  0.00     0.185 A 
HETATM    9  C   UNK     0     -68.100  24.441  87.896  0.00  0.00     0.168 A 
HETATM   10  C   UNK     0     -68.834  23.522  86.901  0.00  0.00     0.024 A 
HETATM   11  C   UNK     0     -64.058  22.579  85.443  0.00  0.00     0.187 A 
HETATM   12  C   UNK     0     -67.393  26.029  89.663  0.00  0.00     0.186 A 
HETATM   13  C   UNK     0     -67.226  21.860  84.867  0.00  0.00     0.143 A 
HETATM   14  C   UNK     0     -63.395  21.692  84.372  0.00  0.00     0.061 C 
HETATM   15  C   UNK     0     -62.533  22.770  85.542  0.00  0.00     0.061 C 
HETATM   16  C   UNK     0     -66.522  26.898  90.590  0.00  0.00     0.061 C 
HETATM   17  C   UNK     0     -68.329  26.796  90.615  0.00  0.00     0.061 C 
ENDROOT
BRANCH  13  18
HETATM   18  O   UNK     0     -66.422  21.028  83.850  0.00  0.00    -0.212 OA
BRANCH  18  19
HETATM   19  S   UNK     0     -67.004  19.713  83.299  0.00  0.00     0.406 S 
HETATM   20  O   UNK     0     -67.182  20.370  81.917  0.00  0.00    -0.172 OA
HETATM   21  O   UNK     0     -66.827  19.055  84.680  0.00  0.00    -0.172 OA
HETATM   22  N   UNK     0     -67.586  18.398  82.748  0.00  0.00    -0.021 N 
ENDBRANCH  18  19
ENDBRANCH  13  18
TORSDOF 2
ENDMDL
MODEL 3
REMARK VINA RESULT:      -6.5      2.060      3.903
REMARK  2 active torsions:
REMARK  status: ('A' for Active; 'I' for Inactive)
REMARK    1  A    between atoms: S_1  and  O_7 
REMARK    2  A    between atoms: O_7  and  C_18 
ROOT
HETATM    1  O   UNK     0     -43.811  25.290  68.561  0.00  0.00    -0.342 OA
HETATM    2  O   UNK     0     -41.528  28.496  68.726  0.00  0.00     0.000 OA
HETATM    3  O   UNK     0     -41.772  26.049  67.372  0.00  0.00    -0.329 OA
HETATM    4  O   UNK     0     -45.292  27.368  71.093  0.00  0.00    -0.343 OA
HETATM    5  O   UNK     0     -44.275  29.558  71.650  0.00  0.00    -0.344 OA
HETATM    6  C   UNK     0     -43.426  26.664  69.118  0.00  0.00     0.202 A 
HETATM    7  C   UNK     0     -44.061  27.554  70.203  0.00  0.00     0.187 A 
HETATM    8  C   UNK     0     -42.160  27.135  68.380  0.00  0.00     0.185 A 
HETATM    9  C   UNK     0     -43.429  28.915  70.549  0.00  0.00     0.168 A 
HETATM   10  C   UNK     0     -42.162  29.386  69.811  0.00  0.00     0.024 A 
HETATM   11  C   UNK     0     -42.791  24.912  67.485  0.00  0.00     0.187 A 
HETATM   12  C   UNK     0     -45.425  28.604  71.986  0.00  0.00     0.186 A 
HETATM   13  C   UNK     0     -40.893  27.606  67.641  0.00  0.00     0.143 A 
HETATM   14  C   UNK     0     -42.045  24.137  66.382  0.00  0.00     0.061 C 
HETATM   15  C   UNK     0     -43.534  23.583  67.249  0.00  0.00     0.061 C 
HETATM   16  C   UNK     0     -46.684  28.000  72.634  0.00  0.00     0.061 C 
HETATM   17  C   UNK     0     -45.942  29.600  73.041  0.00  0.00     0.061 C 
ENDROOT
BRANCH  13  18
HETATM   18  O   UNK     0     -40.258  26.716  66.556  0.00  0.00    -0.212 OA
BRANCH  18  19
HETATM   19  S   UNK     0     -38.737  26.760  66.316  0.00  0.00     0.406 S 
HETATM   20  O   UNK     0     -38.498  26.792  67.838  0.00  0.00    -0.172 OA
HETATM   21  O   UNK     0     -38.976  26.728  64.795  0.00  0.00    -0.172 OA
HETATM   22  N   UNK     0     -37.217  26.804  66.076  0.00  0.00    -0.021 N 
ENDBRANCH  18  19
ENDBRANCH  13  18
TORSDOF 2
ENDMDL
MODEL 4
REMARK VINA RESULT:      -6.5      4.300      6.697
REMARK  2 active torsions:
REMARK  status: ('A' for Active; 'I' for Inactive)
REMARK    1  A    between atoms: S_1  and  O_7 
REMARK    2  A    between atoms: O_7  and  C_18 
ROOT
HETATM    1  O   UNK     0     -45.801  26.514  73.138  0.00  0.00    -0.342 OA
HETATM    2  O   UNK     0     -44.518  25.717  69.500  0.00  0.00     0.000 OA
HETATM    3  O   UNK     0     -44.426  27.720  71.464  0.00  0.00    -0.329 OA
HETATM    4  O   UNK     0     -47.085  23.242  72.386  0.00  0.00    -0.343 OA
HETATM    5  O   UNK     0     -46.596  22.192  70.195  0.00  0.00    -0.344 OA
HETATM    6  C   UNK     0     -45.675  25.620  71.901  0.00  0.00     0.202 A 
HETATM    7  C   UNK     0     -46.226  24.218  71.579  0.00  0.00     0.187 A 
HETATM    8  C   UNK     0     -44.822  26.369  70.862  0.00  0.00     0.185 A 
HETATM    9  C   UNK     0     -45.922  23.566  70.218  0.00  0.00     0.168 A 
HETATM   10  C   UNK     0     -45.067  24.315  69.178  0.00  0.00     0.024 A 
HETATM   11  C   UNK     0     -45.031  27.809  72.868  0.00  0.00     0.187 A 
HETATM   12  C   UNK     0     -47.314  21.992  71.532  0.00  0.00     0.186 A 
HETATM   13  C   UNK     0     -43.967  27.119  69.822  0.00  0.00     0.143 A 
HETATM   14  C   UNK     0     -44.414  29.209  73.044  0.00  0.00     0.061 C 
HETATM   15  C   UNK     0     -45.418  28.329  74.265  0.00  0.00     0.061 C 
HETATM   16  C   UNK     0     -48.148  21.370  72.667  0.00  0.00     0.061 C 
HETATM   17  C   UNK     0     -47.791  20.603  71.067  0.00  0.00     0.061 C 
ENDROOT
BRANCH  13  18
HETATM   18  O   UNK     0     -43.417  28.521  70.144  0.00  0.00    -0.212 OA
BRANCH  18  19
HETATM   19  S   UNK     0     -42.071  28.975  69.549  0.00  0.00     0.406 S 
HETATM   20  O   UNK     0     -41.987  30.100  70.599  0.00  0.00    -0.172 OA
HETATM   21  O   UNK     0     -42.155  27.851  68.500  0.00  0.00    -0.172 OA
HETATM   22  N   UNK     0     -40.726  29.429  68.955  0.00  0.00    -0.021 N 
ENDBRANCH  18  19
ENDBRANCH  13  18
TORSDOF 2
ENDMDL
MODEL 5
REMARK VINA RESULT:      -6.3     29.250     33.145
REMARK  2 active torsions:
REMARK  status: ('A' for Active; 'I' for Inactive)
REMARK    1  A    between atoms: S_1  and  O_7 
REMARK    2  A    between atoms: O_7  and  C_18 
ROOT
HETATM    1  O   UNK     0     -68.554  23.613  87.964  0.00  0.00    -0.342 OA
HETATM    2  O   UNK     0     -65.597  26.127  88.636  0.00  0.00     0.000 OA
HETATM    3  O   UNK     0     -68.263  25.638  89.365  0.00  0.00    -0.329 OA
HETATM    4  O   UNK     0     -65.830  22.418  85.946  0.00  0.00    -0.343 OA
HETATM    5  O   UNK     0     -63.662  23.617  85.955  0.00  0.00    -0.344 OA
HETATM    6  C   UNK     0     -67.125  24.124  87.760  0.00  0.00     0.202 A 
HETATM    7  C   UNK     0     -65.958  23.612  86.896  0.00  0.00     0.187 A 
HETATM    8  C   UNK     0     -66.944  25.381  88.630  0.00  0.00     0.185 A 
HETATM    9  C   UNK     0     -64.611  24.357  86.901  0.00  0.00     0.168 A 
HETATM   10  C   UNK     0     -64.430  25.615  87.772  0.00  0.00     0.024 A 
HETATM   11  C   UNK     0     -69.255  24.547  88.954  0.00  0.00     0.187 A 
HETATM   12  C   UNK     0     -64.413  22.421  85.366  0.00  0.00     0.186 A 
HETATM   13  C   UNK     0     -66.764  26.639  89.500  0.00  0.00     0.143 A 
HETATM   14  C   UNK     0     -70.324  25.177  89.866  0.00  0.00     0.061 C 
HETATM   15  C   UNK     0     -70.537  23.699  88.844  0.00  0.00     0.061 C 
HETATM   16  C   UNK     0     -64.745  21.156  84.553  0.00  0.00     0.061 C 
HETATM   17  C   UNK     0     -63.161  22.032  84.559  0.00  0.00     0.061 C 
ENDROOT
BRANCH  13  18
HETATM   18  O   UNK     0     -67.931  27.152  90.365  0.00  0.00    -0.212 OA
BRANCH  18  19
HETATM   19  S   UNK     0     -67.651  28.066  91.573  0.00  0.00     0.406 S 
HETATM   20  O   UNK     0     -68.937  28.859  91.270  0.00  0.00    -0.172 OA
HETATM   21  O   UNK     0     -66.366  27.273  91.876  0.00  0.00    -0.172 OA
HETATM   22  N   UNK     0     -67.372  28.979  92.780  0.00  0.00    -0.021 N 
ENDBRANCH  18  19
ENDBRANCH  13  18
TORSDOF 2
ENDMDL
MODEL 6
REMARK VINA RESULT:      -6.3     30.786     32.466
REMARK  2 active torsions:
REMARK  status: ('A' for Active; 'I' for Inactive)
REMARK    1  A    between atoms: S_1  and  O_7 
REMARK    2  A    between atoms: O_7  and  C_18 
ROOT
HETATM    1  O   UNK     0     -25.762  42.204  92.712  0.00  0.00    -0.342 OA
HETATM    2  O   UNK     0     -27.490  39.645  95.157  0.00  0.00     0.000 OA
HETATM    3  O   UNK     0     -28.104  41.707  93.354  0.00  0.00    -0.329 OA
HETATM    4  O   UNK     0     -23.063  40.332  94.173  0.00  0.00    -0.343 OA
HETATM    5  O   UNK     0     -23.543  38.545  95.820  0.00  0.00    -0.344 OA
HETATM    6  C   UNK     0     -25.737  41.065  93.735  0.00  0.00     0.202 A 
HETATM    7  C   UNK     0     -24.580  40.263  94.360  0.00  0.00     0.187 A 
HETATM    8  C   UNK     0     -27.191  40.756  94.133  0.00  0.00     0.185 A 
HETATM    9  C   UNK     0     -24.879  39.152  95.384  0.00  0.00     0.168 A 
HETATM   10  C   UNK     0     -26.334  38.843  95.782  0.00  0.00     0.024 A 
HETATM   11  C   UNK     0     -27.221  42.600  92.477  0.00  0.00     0.187 A 
HETATM   12  C   UNK     0     -22.423  39.272  95.073  0.00  0.00     0.186 A 
HETATM   13  C   UNK     0     -28.647  40.447  94.531  0.00  0.00     0.143 A 
HETATM   14  C   UNK     0     -28.477  43.312  91.941  0.00  0.00     0.061 C 
HETATM   15  C   UNK     0     -26.767  43.675  91.472  0.00  0.00     0.061 C 
HETATM   16  C   UNK     0     -21.027  39.695  94.577  0.00  0.00     0.061 C 
HETATM   17  C   UNK     0     -21.378  38.389  95.781  0.00  0.00     0.061 C 
ENDROOT
BRANCH  13  18
HETATM   18  O   UNK     0     -29.804  41.249  93.906  0.00  0.00    -0.212 OA
BRANCH  18  19
HETATM   19  S   UNK     0     -31.238  41.075  94.439  0.00  0.00     0.406 S 
HETATM   20  O   UNK     0     -31.616  42.456  93.871  0.00  0.00    -0.172 OA
HETATM   21  O   UNK     0     -30.860  39.694  95.006  0.00  0.00    -0.172 OA
HETATM   22  N   UNK     0     -32.672  40.901  94.971  0.00  0.00    -0.021 N 
ENDBRANCH  18  19
ENDBRANCH  13  18
TORSDOF 2
ENDMDL
MODEL 7
REMARK VINA RESULT:      -6.1      5.372      6.942
REMARK  2 active torsions:
REMARK  status: ('A' for Active; 'I' for Inactive)
REMARK    1  A    between atoms: S_1  and  O_7 
REMARK    2  A    between atoms: O_7  and  C_18 
ROOT
HETATM    1  O   UNK     0     -45.428  23.998  72.425  0.00  0.00    -0.342 OA
HETATM    2  O   UNK     0     -45.527  25.536  68.800  0.00  0.00     0.000 OA
HETATM    3  O   UNK     0     -45.474  23.064  70.129  0.00  0.00    -0.329 OA
HETATM    4  O   UNK     0     -45.448  27.560  72.915  0.00  0.00    -0.343 OA
HETATM    5  O   UNK     0     -45.507  29.080  70.959  0.00  0.00    -0.344 OA
HETATM    6  C   UNK     0     -45.461  25.171  71.441  0.00  0.00     0.202 A 
HETATM    7  C   UNK     0     -45.470  26.697  71.651  0.00  0.00     0.187 A 
HETATM    8  C   UNK     0     -45.490  24.591  70.015  0.00  0.00     0.185 A 
HETATM    9  C   UNK     0     -45.507  27.642  70.436  0.00  0.00     0.168 A 
HETATM   10  C   UNK     0     -45.536  27.061  69.010  0.00  0.00     0.024 A 
HETATM   11  C   UNK     0     -45.435  22.700  71.616  0.00  0.00     0.187 A 
HETATM   12  C   UNK     0     -45.471  29.030  72.489  0.00  0.00     0.186 A 
HETATM   13  C   UNK     0     -45.519  24.010  68.589  0.00  0.00     0.143 A 
HETATM   14  C   UNK     0     -45.431  21.204  71.248  0.00  0.00     0.061 C 
HETATM   15  C   UNK     0     -45.397  21.886  72.923  0.00  0.00     0.061 C 
HETATM   16  C   UNK     0     -45.440  29.458  73.968  0.00  0.00     0.061 C 
HETATM   17  C   UNK     0     -45.483  30.569  72.539  0.00  0.00     0.061 C 
ENDROOT
BRANCH  13  18
HETATM   18  O   UNK     0     -45.510  22.484  68.378  0.00  0.00    -0.212 OA
BRANCH  18  19
HETATM   19  S   UNK     0     -45.058  21.895  67.029  0.00  0.00     0.406 S 
HETATM   20  O   UNK     0     -44.188  20.863  67.771  0.00  0.00    -0.172 OA
HETATM   21  O   UNK     0     -45.928  22.927  66.287  0.00  0.00    -0.172 OA
HETATM   22  N   UNK     0     -44.607  21.307  65.680  0.00  0.00    -0.021 N 
ENDBRANCH  18  19
ENDBRANCH  13  18
TORSDOF 2
ENDMDL
MODEL 8
REMARK VINA RESULT:      -6.1     22.696     24.183
REMARK  2 active torsions:
REMARK  status: ('A' for Active; 'I' for Inactive)
REMARK    1  A    between atoms: S_1  and  O_7 
REMARK    2  A    between atoms: O_7  and  C_18 
ROOT
HETATM    1  O   UNK     0     -42.342   4.083  76.113  0.00  0.00    -0.342 OA
HETATM    2  O   UNK     0     -43.431   5.950  72.820  0.00  0.00     0.000 OA
HETATM    3  O   UNK     0     -41.609   4.026  73.746  0.00  0.00    -0.329 OA
HETATM    4  O   UNK     0     -45.006   6.279  77.116  0.00  0.00    -0.343 OA
HETATM    5  O   UNK     0     -46.108   7.735  75.442  0.00  0.00    -0.344 OA
HETATM    6  C   UNK     0     -43.201   5.080  75.331  0.00  0.00     0.202 A 
HETATM    7  C   UNK     0     -44.342   6.021  75.761  0.00  0.00     0.187 A 
HETATM    8  C   UNK     0     -42.746   5.045  73.861  0.00  0.00     0.185 A 
HETATM    9  C   UNK     0     -45.027   6.927  74.721  0.00  0.00     0.168 A 
HETATM   10  C   UNK     0     -44.571   6.891  73.250  0.00  0.00     0.024 A 
HETATM   11  C   UNK     0     -41.361   3.433  75.135  0.00  0.00     0.187 A 
HETATM   12  C   UNK     0     -46.095   7.336  76.920  0.00  0.00     0.186 A 
HETATM   13  C   UNK     0     -42.290   5.010  72.390  0.00  0.00     0.143 A 
HETATM   14  C   UNK     0     -40.240   2.549  74.557  0.00  0.00     0.061 C 
HETATM   15  C   UNK     0     -40.775   2.591  76.285  0.00  0.00     0.061 C 
HETATM   16  C   UNK     0     -46.438   7.260  78.419  0.00  0.00     0.061 C 
HETATM   17  C   UNK     0     -47.243   8.324  77.196  0.00  0.00     0.061 C 
ENDROOT
BRANCH  13  18
HETATM   18  O   UNK     0     -41.148   4.069  71.960  0.00  0.00    -0.212 OA
BRANCH  18  19
HETATM   19  S   UNK     0     -40.417   4.305  70.625  0.00  0.00     0.406 S 
HETATM   20  O   UNK     0     -41.755   4.671  69.957  0.00  0.00    -0.172 OA
HETATM   21  O   UNK     0     -39.079   3.939  71.294  0.00  0.00    -0.172 OA
HETATM   22  N   UNK     0     -39.686   4.541  69.291  0.00  0.00    -0.021 N 
ENDBRANCH  18  19
ENDBRANCH  13  18
TORSDOF 2
ENDMDL
MODEL 9
REMARK VINA RESULT:      -6.1     14.217     15.421
REMARK  2 active torsions:
REMARK  status: ('A' for Active; 'I' for Inactive)
REMARK    1  A    between atoms: S_1  and  O_7 
REMARK    2  A    between atoms: O_7  and  C_18 
ROOT
HETATM    1  O   UNK     0     -47.899  37.600  59.048  0.00  0.00    -0.342 OA
HETATM    2  O   UNK     0     -48.059  34.985  56.106  0.00  0.00     0.000 OA
HETATM    3  O   UNK     0     -48.233  37.744  56.595  0.00  0.00    -0.329 OA
HETATM    4  O   UNK     0     -47.418  34.399  60.611  0.00  0.00    -0.343 OA
HETATM    5  O   UNK     0     -47.420  32.336  59.237  0.00  0.00    -0.344 OA
HETATM    6  C   UNK     0     -47.851  36.178  58.483  0.00  0.00     0.202 A 
HETATM    7  C   UNK     0     -47.645  34.807  59.153  0.00  0.00     0.187 A 
HETATM    8  C   UNK     0     -48.058  36.267  56.960  0.00  0.00     0.185 A 
HETATM    9  C   UNK     0     -47.646  33.525  58.299  0.00  0.00     0.168 A 
HETATM   10  C   UNK     0     -47.853  33.614  56.776  0.00  0.00     0.024 A 
HETATM   11  C   UNK     0     -48.135  38.565  57.884  0.00  0.00     0.187 A 
HETATM   12  C   UNK     0     -47.280  32.875  60.663  0.00  0.00     0.186 A 
HETATM   13  C   UNK     0     -48.265  36.357  55.436  0.00  0.00     0.143 A 
HETATM   14  C   UNK     0     -48.353  39.858  57.074  0.00  0.00     0.061 C 
HETATM   15  C   UNK     0     -48.109  39.753  58.864  0.00  0.00     0.061 C 
HETATM   16  C   UNK     0     -47.086  32.946  62.189  0.00  0.00     0.061 C 
HETATM   17  C   UNK     0     -47.088  31.440  61.186  0.00  0.00     0.061 C 
ENDROOT
BRANCH  13  18
HETATM   18  O   UNK     0     -48.472  37.728  54.766  0.00  0.00    -0.212 OA
BRANCH  18  19
HETATM   19  S   UNK     0     -48.453  37.846  53.231  0.00  0.00     0.406 S 
HETATM   20  O   UNK     0     -47.537  36.610  53.147  0.00  0.00    -0.172 OA
HETATM   21  O   UNK     0     -49.368  39.082  53.314  0.00  0.00    -0.172 OA
HETATM   22  N   UNK     0     -48.434  37.964  51.696  0.00  0.00    -0.021 N 
ENDBRANCH  18  19
ENDBRANCH  13  18
TORSDOF 2
ENDMDL
MODEL 10
REMARK VINA RESULT:      -6.0      4.334      6.859
REMARK  2 active torsions:
REMARK  status: ('A' for Active; 'I' for Inactive)
REMARK    1  A    between atoms: S_1  and  O_7 
REMARK    2  A    between atoms: O_7  and  C_18 
ROOT
HETATM    1  O   UNK     0     -45.860  27.522  72.660  0.00  0.00    -0.342 OA
HETATM    2  O   UNK     0     -43.036  27.941  69.947  0.00  0.00     0.000 OA
HETATM    3  O   UNK     0     -43.996  29.118  72.307  0.00  0.00    -0.329 OA
HETATM    4  O   UNK     0     -46.392  24.837  70.330  0.00  0.00    -0.343 OA
HETATM    5  O   UNK     0     -44.895  24.581  68.372  0.00  0.00    -0.344 OA
HETATM    6  C   UNK     0     -45.123  27.109  71.383  0.00  0.00     0.202 A 
HETATM    7  C   UNK     0     -45.351  25.959  70.385  0.00  0.00     0.187 A 
HETATM    8  C   UNK     0     -43.966  28.100  71.164  0.00  0.00     0.185 A 
HETATM    9  C   UNK     0     -44.421  25.800  69.168  0.00  0.00     0.168 A 
HETATM   10  C   UNK     0     -43.263  26.791  68.949  0.00  0.00     0.024 A 
HETATM   11  C   UNK     0     -45.165  28.761  73.230  0.00  0.00     0.187 A 
HETATM   12  C   UNK     0     -46.110  23.987  69.088  0.00  0.00     0.186 A 
HETATM   13  C   UNK     0     -42.808  29.092  70.945  0.00  0.00     0.143 A 
HETATM   14  C   UNK     0     -44.813  29.955  74.136  0.00  0.00     0.061 C 
HETATM   15  C   UNK     0     -46.173  28.791  74.394  0.00  0.00     0.061 C 
HETATM   16  C   UNK     0     -47.304  23.080  69.439  0.00  0.00     0.061 C 
HETATM   17  C   UNK     0     -46.211  22.893  68.009  0.00  0.00     0.061 C 
ENDROOT
BRANCH  13  18
HETATM   18  O   UNK     0     -42.580  30.242  71.943  0.00  0.00    -0.212 OA
BRANCH  18  19
HETATM   19  S   UNK     0     -41.426  31.239  71.720  0.00  0.00     0.406 S 
HETATM   20  O   UNK     0     -41.683  31.847  73.112  0.00  0.00    -0.172 OA
HETATM   21  O   UNK     0     -41.170  30.630  70.329  0.00  0.00    -0.172 OA
HETATM   22  N   UNK     0     -40.274  32.234  71.497  0.00  0.00    -0.021 N 
ENDBRANCH  18  19
ENDBRANCH  13  18
TORSDOF 2
ENDMDL
