MODEL 1
REMARK VINA RESULT:      -4.3      0.000      0.000
REMARK  5 active torsions:
REMARK  status: ('A' for Active; 'I' for Inactive)
REMARK    1  A    between atoms: C_2  and  C_3 
REMARK    2  A    between atoms: C_3  and  C_4 
REMARK    3  A    between atoms: C_4  and  C_8 
REMARK    4  A    between atoms: C_4  and  C_5 
REMARK    5  A    between atoms: C_6  and  C_8 
ROOT
HETATM    1  C   UNK     0     -43.984  27.748  71.496  0.00  0.00     0.087 C 
ENDROOT
BRANCH   1   2
HETATM    2  C   UNK     0     -45.298  26.958  71.637  0.00  0.00     0.011 C 
BRANCH   2   3
HETATM    3  C   UNK     0     -46.519  27.608  72.316  0.00  0.00     0.001 C 
HETATM    4  C   UNK     0     -46.703  29.135  72.268  0.00  0.00     0.000 C 
ENDBRANCH   2   3
ENDBRANCH   1   2
BRANCH   1   5
HETATM    5  C   UNK     0     -43.035  27.886  72.701  0.00  0.00     0.011 C 
BRANCH   5   6
HETATM    6  C   UNK     0     -43.086  29.151  73.579  0.00  0.00     0.001 C 
HETATM    7  C   UNK     0     -44.013  29.199  74.807  0.00  0.00     0.000 C 
ENDBRANCH   5   6
ENDBRANCH   1   5
BRANCH   1   8
HETATM    8  C   UNK     0     -43.618  28.398  70.149  0.00  0.00     0.185 C 
HETATM    9  O   UNK     0     -44.703  29.106  69.316  0.00  0.00    -0.647 OA
HETATM   10  O   UNK     0     -42.168  28.341  69.635  0.00  0.00    -0.647 OA
ENDBRANCH   1   8
TORSDOF 5
ENDMDL
MODEL 2
REMARK VINA RESULT:      -4.2      0.975      3.159
REMARK  5 active torsions:
REMARK  status: ('A' for Active; 'I' for Inactive)
REMARK    1  A    between atoms: C_2  and  C_3 
REMARK    2  A    between atoms: C_3  and  C_4 
REMARK    3  A    between atoms: C_4  and  C_8 
REMARK    4  A    between atoms: C_4  and  C_5 
REMARK    5  A    between atoms: C_6  and  C_8 
ROOT
HETATM    1  C   UNK     0     -44.664  29.147  71.477  0.00  0.00     0.087 C 
ENDROOT
BRANCH   1   2
HETATM    2  C   UNK     0     -43.788  29.981  72.431  0.00  0.00     0.011 C 
BRANCH   2   3
HETATM    3  C   UNK     0     -43.217  29.340  73.710  0.00  0.00     0.001 C 
HETATM    4  C   UNK     0     -44.087  29.244  74.977  0.00  0.00     0.000 C 
ENDBRANCH   2   3
ENDBRANCH   1   2
BRANCH   1   5
HETATM    5  C   UNK     0     -46.077  28.715  71.908  0.00  0.00     0.011 C 
BRANCH   5   6
HETATM    6  C   UNK     0     -46.387  27.226  72.152  0.00  0.00     0.001 C 
HETATM    7  C   UNK     0     -45.377  26.344  72.910  0.00  0.00     0.000 C 
ENDBRANCH   5   6
ENDBRANCH   1   5
BRANCH   1   8
HETATM    8  C   UNK     0     -44.125  28.746  70.091  0.00  0.00     0.185 C 
HETATM    9  O   UNK     0     -42.834  27.914  69.978  0.00  0.00    -0.647 OA
HETATM   10  O   UNK     0     -44.877  29.177  68.818  0.00  0.00    -0.647 OA
ENDBRANCH   1   8
TORSDOF 5
ENDMDL
MODEL 3
REMARK VINA RESULT:      -4.2      1.814      3.130
REMARK  5 active torsions:
REMARK  status: ('A' for Active; 'I' for Inactive)
REMARK    1  A    between atoms: C_2  and  C_3 
REMARK    2  A    between atoms: C_3  and  C_4 
REMARK    3  A    between atoms: C_4  and  C_8 
REMARK    4  A    between atoms: C_4  and  C_5 
REMARK    5  A    between atoms: C_6  and  C_8 
ROOT
HETATM    1  C   UNK     0     -43.184  28.904  72.901  0.00  0.00     0.087 C 
ENDROOT
BRANCH   1   2
HETATM    2  C   UNK     0     -43.617  29.308  74.323  0.00  0.00     0.011 C 
BRANCH   2   3
HETATM    3  C   UNK     0     -45.072  29.738  74.593  0.00  0.00     0.001 C 
HETATM    4  C   UNK     0     -46.226  28.755  74.326  0.00  0.00     0.000 C 
ENDBRANCH   2   3
ENDBRANCH   1   2
BRANCH   1   5
HETATM    5  C   UNK     0     -43.275  27.432  72.458  0.00  0.00     0.011 C 
BRANCH   5   6
HETATM    6  C   UNK     0     -44.525  26.929  71.712  0.00  0.00     0.001 C 
HETATM    7  C   UNK     0     -45.333  25.745  72.274  0.00  0.00     0.000 C 
ENDBRANCH   5   6
ENDBRANCH   1   5
BRANCH   1   8
HETATM    8  C   UNK     0     -42.660  29.972  71.924  0.00  0.00     0.185 C 
HETATM    9  O   UNK     0     -42.307  29.583  70.476  0.00  0.00    -0.647 OA
HETATM   10  O   UNK     0     -42.489  31.428  72.394  0.00  0.00    -0.647 OA
ENDBRANCH   1   8
TORSDOF 5
ENDMDL
MODEL 4
REMARK VINA RESULT:      -4.2     27.232     28.889
REMARK  5 active torsions:
REMARK  status: ('A' for Active; 'I' for Inactive)
REMARK    1  A    between atoms: C_2  and  C_3 
REMARK    2  A    between atoms: C_3  and  C_4 
REMARK    3  A    between atoms: C_4  and  C_8 
REMARK    4  A    between atoms: C_4  and  C_5 
REMARK    5  A    between atoms: C_6  and  C_8 
ROOT
HETATM    1  C   UNK     0     -18.272  35.132  80.037  0.00  0.00     0.087 C 
ENDROOT
BRANCH   1   2
HETATM    2  C   UNK     0     -16.878  35.262  79.396  0.00  0.00     0.011 C 
BRANCH   2   3
HETATM    3  C   UNK     0     -15.616  35.189  80.277  0.00  0.00     0.001 C 
HETATM    4  C   UNK     0     -14.751  33.915  80.277  0.00  0.00     0.000 C 
ENDBRANCH   2   3
ENDBRANCH   1   2
BRANCH   1   5
HETATM    5  C   UNK     0     -18.950  33.753  80.133  0.00  0.00     0.011 C 
BRANCH   5   6
HETATM    6  C   UNK     0     -18.991  33.007  81.479  0.00  0.00     0.001 C 
HETATM    7  C   UNK     0     -17.682  32.706  82.233  0.00  0.00     0.000 C 
ENDBRANCH   5   6
ENDBRANCH   1   5
BRANCH   1   8
HETATM    8  C   UNK     0     -18.989  36.382  80.581  0.00  0.00     0.185 C 
HETATM    9  O   UNK     0     -18.366  37.183  81.739  0.00  0.00    -0.647 OA
HETATM   10  O   UNK     0     -20.328  36.831  79.967  0.00  0.00    -0.647 OA
ENDBRANCH   1   8
TORSDOF 5
ENDMDL
MODEL 5
REMARK VINA RESULT:      -4.1      1.681      2.232
REMARK  5 active torsions:
REMARK  status: ('A' for Active; 'I' for Inactive)
REMARK    1  A    between atoms: C_2  and  C_3 
REMARK    2  A    between atoms: C_3  and  C_4 
REMARK    3  A    between atoms: C_4  and  C_8 
REMARK    4  A    between atoms: C_4  and  C_5 
REMARK    5  A    between atoms: C_6  and  C_8 
ROOT
HETATM    1  C   UNK     0     -44.510  27.886  71.596  0.00  0.00     0.087 C 
ENDROOT
BRANCH   1   2
HETATM    2  C   UNK     0     -45.061  27.401  72.950  0.00  0.00     0.011 C 
BRANCH   2   3
HETATM    3  C   UNK     0     -46.028  28.293  73.752  0.00  0.00     0.001 C 
HETATM    4  C   UNK     0     -45.477  29.440  74.618  0.00  0.00     0.000 C 
ENDBRANCH   2   3
ENDBRANCH   1   2
BRANCH   1   5
HETATM    5  C   UNK     0     -43.044  28.343  71.481  0.00  0.00     0.011 C 
BRANCH   5   6
HETATM    6  C   UNK     0     -42.702  29.845  71.500  0.00  0.00     0.001 C 
HETATM    7  C   UNK     0     -42.454  30.561  72.840  0.00  0.00     0.000 C 
ENDBRANCH   5   6
ENDBRANCH   1   5
BRANCH   1   8
HETATM    8  C   UNK     0     -45.424  27.913  70.357  0.00  0.00     0.185 C 
HETATM    9  O   UNK     0     -46.507  26.832  70.176  0.00  0.00    -0.647 OA
HETATM   10  O   UNK     0     -45.257  29.021  69.301  0.00  0.00    -0.647 OA
ENDBRANCH   1   8
TORSDOF 5
ENDMDL
MODEL 6
REMARK VINA RESULT:      -4.0     25.938     27.301
REMARK  5 active torsions:
REMARK  status: ('A' for Active; 'I' for Inactive)
REMARK    1  A    between atoms: C_2  and  C_3 
REMARK    2  A    between atoms: C_3  and  C_4 
REMARK    3  A    between atoms: C_4  and  C_8 
REMARK    4  A    between atoms: C_4  and  C_5 
REMARK    5  A    between atoms: C_6  and  C_8 
ROOT
HETATM    1  C   UNK     0     -59.826  43.295  55.822  0.00  0.00     0.087 C 
ENDROOT
BRANCH   1   2
HETATM    2  C   UNK     0     -61.190  44.008  55.791  0.00  0.00     0.011 C 
BRANCH   2   3
HETATM    3  C   UNK     0     -62.452  43.281  56.294  0.00  0.00     0.001 C 
HETATM    4  C   UNK     0     -63.792  43.467  55.559  0.00  0.00     0.000 C 
ENDBRANCH   2   3
ENDBRANCH   1   2
BRANCH   1   5
HETATM    5  C   UNK     0     -59.572  42.077  54.914  0.00  0.00     0.011 C 
BRANCH   5   6
HETATM    6  C   UNK     0     -60.461  41.840  53.679  0.00  0.00     0.001 C 
HETATM    7  C   UNK     0     -61.566  40.767  53.720  0.00  0.00     0.000 C 
ENDBRANCH   5   6
ENDBRANCH   1   5
BRANCH   1   8
HETATM    8  C   UNK     0     -58.715  43.799  56.762  0.00  0.00     0.185 C 
HETATM    9  O   UNK     0     -58.998  43.972  58.266  0.00  0.00    -0.647 OA
HETATM   10  O   UNK     0     -57.321  44.132  56.197  0.00  0.00    -0.647 OA
ENDBRANCH   1   8
TORSDOF 5
ENDMDL
MODEL 7
REMARK VINA RESULT:      -3.8     26.268     27.537
REMARK  5 active torsions:
REMARK  status: ('A' for Active; 'I' for Inactive)
REMARK    1  A    between atoms: C_2  and  C_3 
REMARK    2  A    between atoms: C_3  and  C_4 
REMARK    3  A    between atoms: C_4  and  C_8 
REMARK    4  A    between atoms: C_4  and  C_5 
REMARK    5  A    between atoms: C_6  and  C_8 
ROOT
HETATM    1  C   UNK     0     -59.497  44.214  55.751  0.00  0.00     0.087 C 
ENDROOT
BRANCH   1   2
HETATM    2  C   UNK     0     -59.344  42.684  55.671  0.00  0.00     0.011 C 
BRANCH   2   3
HETATM    3  C   UNK     0     -59.749  41.934  54.388  0.00  0.00     0.001 C 
HETATM    4  C   UNK     0     -61.197  41.444  54.208  0.00  0.00     0.000 C 
ENDBRANCH   2   3
ENDBRANCH   1   2
BRANCH   1   5
HETATM    5  C   UNK     0     -59.943  45.009  54.509  0.00  0.00     0.011 C 
BRANCH   5   6
HETATM    6  C   UNK     0     -58.906  45.434  53.453  0.00  0.00     0.001 C 
HETATM    7  C   UNK     0     -57.453  45.723  53.874  0.00  0.00     0.000 C 
ENDBRANCH   5   6
ENDBRANCH   1   5
BRANCH   1   8
HETATM    8  C   UNK     0     -59.205  44.949  57.071  0.00  0.00     0.185 C 
HETATM    9  O   UNK     0     -59.099  44.156  58.387  0.00  0.00    -0.647 OA
HETATM   10  O   UNK     0     -59.019  46.478  57.077  0.00  0.00    -0.647 OA
ENDBRANCH   1   8
TORSDOF 5
ENDMDL
MODEL 8
REMARK VINA RESULT:      -3.7     30.559     31.858
REMARK  5 active torsions:
REMARK  status: ('A' for Active; 'I' for Inactive)
REMARK    1  A    between atoms: C_2  and  C_3 
REMARK    2  A    between atoms: C_3  and  C_4 
REMARK    3  A    between atoms: C_4  and  C_8 
REMARK    4  A    between atoms: C_4  and  C_5 
REMARK    5  A    between atoms: C_6  and  C_8 
ROOT
HETATM    1  C   UNK     0     -19.894  46.191  78.220  0.00  0.00     0.087 C 
ENDROOT
BRANCH   1   2
HETATM    2  C   UNK     0     -19.366  45.483  79.482  0.00  0.00     0.011 C 
BRANCH   2   3
HETATM    3  C   UNK     0     -17.874  45.578  79.851  0.00  0.00     0.001 C 
HETATM    4  C   UNK     0     -17.148  46.934  79.779  0.00  0.00     0.000 C 
ENDBRANCH   2   3
ENDBRANCH   1   2
BRANCH   1   5
HETATM    5  C   UNK     0     -19.635  45.581  76.829  0.00  0.00     0.011 C 
BRANCH   5   6
HETATM    6  C   UNK     0     -18.486  46.118  75.955  0.00  0.00     0.001 C 
HETATM    7  C   UNK     0     -17.053  45.591  76.157  0.00  0.00     0.000 C 
ENDBRANCH   5   6
ENDBRANCH   1   5
BRANCH   1   8
HETATM    8  C   UNK     0     -20.681  47.508  78.348  0.00  0.00     0.185 C 
HETATM    9  O   UNK     0     -20.281  48.543  79.416  0.00  0.00    -0.647 OA
HETATM   10  O   UNK     0     -21.869  47.790  77.409  0.00  0.00    -0.647 OA
ENDBRANCH   1   8
TORSDOF 5
ENDMDL
MODEL 9
REMARK VINA RESULT:      -3.7     30.551     31.693
REMARK  5 active torsions:
REMARK  status: ('A' for Active; 'I' for Inactive)
REMARK    1  A    between atoms: C_2  and  C_3 
REMARK    2  A    between atoms: C_3  and  C_4 
REMARK    3  A    between atoms: C_4  and  C_8 
REMARK    4  A    between atoms: C_4  and  C_5 
REMARK    5  A    between atoms: C_6  and  C_8 
ROOT
HETATM    1  C   UNK     0     -19.961  46.187  78.040  0.00  0.00     0.087 C 
ENDROOT
BRANCH   1   2
HETATM    2  C   UNK     0     -19.589  45.597  76.667  0.00  0.00     0.011 C 
BRANCH   2   3
HETATM    3  C   UNK     0     -18.381  46.154  75.891  0.00  0.00     0.001 C 
HETATM    4  C   UNK     0     -17.004  45.480  76.025  0.00  0.00     0.000 C 
ENDBRANCH   2   3
ENDBRANCH   1   2
BRANCH   1   5
HETATM    5  C   UNK     0     -19.528  45.466  79.330  0.00  0.00     0.011 C 
BRANCH   5   6
HETATM    6  C   UNK     0     -18.051  45.488  79.767  0.00  0.00     0.001 C 
HETATM    7  C   UNK     0     -17.318  46.832  79.935  0.00  0.00     0.000 C 
ENDBRANCH   5   6
ENDBRANCH   1   5
BRANCH   1   8
HETATM    8  C   UNK     0     -20.765  47.497  78.123  0.00  0.00     0.185 C 
HETATM    9  O   UNK     0     -21.929  47.750  77.147  0.00  0.00    -0.647 OA
HETATM   10  O   UNK     0     -20.406  48.555  79.183  0.00  0.00    -0.647 OA
ENDBRANCH   1   8
TORSDOF 5
ENDMDL
MODEL 10
REMARK VINA RESULT:      -3.6     27.586     29.072
REMARK  5 active torsions:
REMARK  status: ('A' for Active; 'I' for Inactive)
REMARK    1  A    between atoms: C_2  and  C_3 
REMARK    2  A    between atoms: C_3  and  C_4 
REMARK    3  A    between atoms: C_4  and  C_8 
REMARK    4  A    between atoms: C_4  and  C_5 
REMARK    5  A    between atoms: C_6  and  C_8 
ROOT
HETATM    1  C   UNK     0     -62.960  42.088  54.903  0.00  0.00     0.087 C 
ENDROOT
BRANCH   1   2
HETATM    2  C   UNK     0     -63.079  40.619  54.456  0.00  0.00     0.011 C 
BRANCH   2   3
HETATM    3  C   UNK     0     -62.682  40.215  53.024  0.00  0.00     0.001 C 
HETATM    4  C   UNK     0     -61.264  39.690  52.737  0.00  0.00     0.000 C 
ENDBRANCH   2   3
ENDBRANCH   1   2
BRANCH   1   5
HETATM    5  C   UNK     0     -64.112  43.072  54.629  0.00  0.00     0.011 C 
BRANCH   5   6
HETATM    6  C   UNK     0     -65.508  42.539  54.254  0.00  0.00     0.001 C 
HETATM    7  C   UNK     0     -65.878  42.323  52.775  0.00  0.00     0.000 C 
ENDBRANCH   5   6
ENDBRANCH   1   5
BRANCH   1   8
HETATM    8  C   UNK     0     -61.689  42.572  55.624  0.00  0.00     0.185 C 
HETATM    9  O   UNK     0     -61.801  43.548  56.811  0.00  0.00    -0.647 OA
HETATM   10  O   UNK     0     -60.305  42.081  55.159  0.00  0.00    -0.647 OA
ENDBRANCH   1   8
TORSDOF 5
ENDMDL
