MODEL 1
REMARK VINA RESULT:      -7.9      0.000      0.000
REMARK  9 active torsions:
REMARK  status: ('A' for Active; 'I' for Inactive)
REMARK    1  A    between atoms: C_3  and  C_21 
REMARK    2  A    between atoms: C_4  and  C_14 
REMARK    3  A    between atoms: C_7  and  N_9 
REMARK       I    between atoms: N_9  and  C_10 
REMARK    4  A    between atoms: C_10  and  C_13 
REMARK    5  A    between atoms: C_13  and  C_15 
REMARK    6  A    between atoms: C_13  and  N_20 
REMARK    7  A    between atoms: C_14  and  S_24 
REMARK    8  A    between atoms: N_20  and  O_35 
REMARK    9  A    between atoms: S_24  and  C_25 
ROOT
HETATM    1  C   UNK     0     146.083 129.954 170.221  0.00  0.00     0.308 A 
HETATM    2  N   UNK     0     146.542 128.787 169.467  0.00  0.00    -0.297 N 
HETATM    3  C   UNK     0     148.091 128.624 169.170  0.00  0.00     0.121 A 
HETATM    4  C   UNK     0     149.083 129.664 169.660  0.00  0.00    -0.002 A 
HETATM    5  C   UNK     0     148.624 130.831 170.413  0.00  0.00     0.065 A 
HETATM    6  S   UNK     0     147.147 131.019 170.716  0.00  0.00    -0.194 SA
HETATM    7  C   UNK     0     144.630 129.453 170.111  0.00  0.00     0.125 A 
HETATM    8  C   UNK     0     145.090 128.286 169.357  0.00  0.00     0.211 A 
HETATM    9  O   UNK     0     144.098 127.247 168.867  0.00  0.00    -0.170 OA
ENDROOT
BRANCH   7  10
HETATM   10  N   UNK     0     143.154 129.642 170.414  0.00  0.00    -0.217 NA
HETATM   11  C   UNK     0     142.312 130.492 169.479  0.00  0.00     0.234 C 
HETATM   12  O   UNK     0     142.914 131.122 168.304  0.00  0.00    -0.167 OA
BRANCH  11  13
HETATM   13  C   UNK     0     140.836 130.681 169.782  0.00  0.00     0.165 C 
BRANCH  13  14
HETATM   14  C   UNK     0     140.094 129.716 170.799  0.00  0.00     0.091 A 
HETATM   15  C   UNK     0     140.014 128.251 170.330  0.00  0.00     0.108 A 
HETATM   16  S   UNK     0     139.268 127.484 171.437  0.00  0.00    -0.072 SA
HETATM   17  C   UNK     0     138.868 128.484 172.631  0.00  0.00     0.456 A 
HETATM   18  N   UNK     0     139.384 129.879 172.232  0.00  0.00    -0.229 NA
HETATM   19  N   UNK     0     138.115 128.113 173.922  0.00  0.00     0.656 N 
ENDBRANCH  13  14
BRANCH  13  20
HETATM   20  N   UNK     0     139.998 131.868 169.073  0.00  0.00    -0.126 NA
BRANCH  20  21
HETATM   21  O   UNK     0     139.310 131.636 167.714  0.00  0.00    -0.234 OA
HETATM   22  C   UNK     0     138.769 130.243 167.339  0.00  0.00     0.211 C 
ENDBRANCH  20  21
ENDBRANCH  13  20
ENDBRANCH  11  13
ENDBRANCH   7  10
BRANCH   3  23
HETATM   23  C   UNK     0     148.575 127.396 168.377  0.00  0.00     0.227 C 
HETATM   24  O   UNK     0     148.843 126.011 169.041  0.00  0.00    -0.643 OA
HETATM   25  O   UNK     0     148.814 127.533 166.815  0.00  0.00    -0.643 OA
ENDBRANCH   3  23
BRANCH   4  26
HETATM   26  C   UNK     0     150.584 129.414 169.317  0.00  0.00     0.089 C 
BRANCH  26  27
HETATM   27  S   UNK     0     151.491 130.632 169.307  0.00  0.00    -0.071 SA
BRANCH  27  28
HETATM   28  C   UNK     0     152.406 130.881 170.494  0.00  0.00     0.190 A 
HETATM   29  N   UNK     0     151.838 131.432 171.815  0.00  0.00    -0.192 NA
HETATM   30  C   UNK     0     152.752 131.681 173.002  0.00  0.00     0.260 A 
HETATM   31  C   UNK     0     154.305 131.377 172.898  0.00  0.00     0.274 A 
HETATM   32  O   UNK     0     152.184 132.232 174.323  0.00  0.00    -0.165 OA
HETATM   33  N   UNK     0     154.872 130.826 171.577  0.00  0.00    -0.136 NA
HETATM   34  O   UNK     0     155.219 131.626 174.085  0.00  0.00    -0.164 OA
HETATM   35  N   UNK     0     153.888 130.578 170.360  0.00  0.00    -0.225 N 
HETATM   36  C   UNK     0     154.456 130.027 169.039  0.00  0.00     0.156 C 
ENDBRANCH  27  28
ENDBRANCH  26  27
ENDBRANCH   4  26
TORSDOF 9
ENDMDL
MODEL 2
REMARK VINA RESULT:      -7.6     27.204     32.435
REMARK  9 active torsions:
REMARK  status: ('A' for Active; 'I' for Inactive)
REMARK    1  A    between atoms: C_3  and  C_21 
REMARK    2  A    between atoms: C_4  and  C_14 
REMARK    3  A    between atoms: C_7  and  N_9 
REMARK       I    between atoms: N_9  and  C_10 
REMARK    4  A    between atoms: C_10  and  C_13 
REMARK    5  A    between atoms: C_13  and  C_15 
REMARK    6  A    between atoms: C_13  and  N_20 
REMARK    7  A    between atoms: C_14  and  S_24 
REMARK    8  A    between atoms: N_20  and  O_35 
REMARK    9  A    between atoms: S_24  and  C_25 
ROOT
HETATM    1  C   UNK     0     167.131 151.218 163.182  0.00  0.00     0.308 A 
HETATM    2  N   UNK     0     166.473 151.809 162.016  0.00  0.00    -0.297 N 
HETATM    3  C   UNK     0     165.020 152.422 162.181  0.00  0.00     0.121 A 
HETATM    4  C   UNK     0     164.321 152.396 163.529  0.00  0.00    -0.002 A 
HETATM    5  C   UNK     0     164.979 151.804 164.694  0.00  0.00     0.065 A 
HETATM    6  S   UNK     0     166.370 151.208 164.573  0.00  0.00    -0.194 SA
HETATM    7  C   UNK     0     168.361 150.883 162.317  0.00  0.00     0.125 A 
HETATM    8  C   UNK     0     167.703 151.474 161.152  0.00  0.00     0.211 A 
HETATM    9  O   UNK     0     168.402 151.501 159.804  0.00  0.00    -0.170 OA
ENDROOT
BRANCH   7  10
HETATM   10  N   UNK     0     169.752 150.286 162.195  0.00  0.00    -0.217 NA
HETATM   11  C   UNK     0     170.960 151.194 162.348  0.00  0.00     0.234 C 
HETATM   12  O   UNK     0     170.785 152.623 162.609  0.00  0.00    -0.167 OA
BRANCH  11  13
HETATM   13  C   UNK     0     172.351 150.598 162.227  0.00  0.00     0.165 C 
BRANCH  13  14
HETATM   14  C   UNK     0     173.037 149.895 163.472  0.00  0.00     0.091 A 
HETATM   15  C   UNK     0     172.109 149.731 164.690  0.00  0.00     0.108 A 
HETATM   16  S   UNK     0     172.947 149.037 165.780  0.00  0.00    -0.072 SA
HETATM   17  C   UNK     0     174.435 148.757 165.240  0.00  0.00     0.456 A 
HETATM   18  N   UNK     0     174.491 149.293 163.798  0.00  0.00    -0.229 NA
HETATM   19  N   UNK     0     175.579 148.083 166.020  0.00  0.00     0.656 N 
ENDBRANCH  13  14
BRANCH  13  20
HETATM   20  N   UNK     0     173.155 150.671 160.826  0.00  0.00    -0.126 NA
BRANCH  20  21
HETATM   21  O   UNK     0     173.047 149.525 159.801  0.00  0.00    -0.234 OA
HETATM   22  C   UNK     0     171.898 148.503 159.890  0.00  0.00     0.211 C 
ENDBRANCH  20  21
ENDBRANCH  13  20
ENDBRANCH  11  13
ENDBRANCH   7  10
BRANCH   3  23
HETATM   23  C   UNK     0     164.328 153.045 160.955  0.00  0.00     0.227 C 
HETATM   24  O   UNK     0     163.342 152.251 160.045  0.00  0.00    -0.643 OA
HETATM   25  O   UNK     0     164.622 154.560 160.591  0.00  0.00    -0.643 OA
ENDBRANCH   3  23
BRANCH   4  26
HETATM   26  C   UNK     0     162.895 153.023 163.590  0.00  0.00     0.089 C 
BRANCH  26  27
HETATM   27  S   UNK     0     161.724 152.067 163.444  0.00  0.00    -0.071 SA
BRANCH  27  28
HETATM   28  C   UNK     0     160.318 152.577 163.707  0.00  0.00     0.190 A 
HETATM   29  N   UNK     0     159.687 152.441 165.105  0.00  0.00    -0.192 NA
HETATM   30  C   UNK     0     158.281 152.951 165.368  0.00  0.00     0.260 A 
HETATM   31  C   UNK     0     157.442 153.631 164.208  0.00  0.00     0.274 A 
HETATM   32  O   UNK     0     157.649 152.814 166.766  0.00  0.00    -0.165 OA
HETATM   33  N   UNK     0     158.073 153.767 162.810  0.00  0.00    -0.136 NA
HETATM   34  O   UNK     0     156.036 154.141 164.471  0.00  0.00    -0.164 OA
HETATM   35  N   UNK     0     159.543 153.223 162.572  0.00  0.00    -0.225 N 
HETATM   36  C   UNK     0     160.175 153.360 161.174  0.00  0.00     0.156 C 
ENDBRANCH  27  28
ENDBRANCH  26  27
ENDBRANCH   4  26
TORSDOF 9
ENDMDL
MODEL 3
REMARK VINA RESULT:      -7.5     28.389     32.306
REMARK  9 active torsions:
REMARK  status: ('A' for Active; 'I' for Inactive)
REMARK    1  A    between atoms: C_3  and  C_21 
REMARK    2  A    between atoms: C_4  and  C_14 
REMARK    3  A    between atoms: C_7  and  N_9 
REMARK       I    between atoms: N_9  and  C_10 
REMARK    4  A    between atoms: C_10  and  C_13 
REMARK    5  A    between atoms: C_13  and  C_15 
REMARK    6  A    between atoms: C_13  and  N_20 
REMARK    7  A    between atoms: C_14  and  S_24 
REMARK    8  A    between atoms: N_20  and  O_35 
REMARK    9  A    between atoms: S_24  and  C_25 
ROOT
HETATM    1  C   UNK     0     167.210 150.553 163.604  0.00  0.00     0.308 A 
HETATM    2  N   UNK     0     166.232 150.056 162.636  0.00  0.00    -0.297 N 
HETATM    3  C   UNK     0     164.701 150.417 162.834  0.00  0.00     0.121 A 
HETATM    4  C   UNK     0     164.256 151.267 164.011  0.00  0.00    -0.002 A 
HETATM    5  C   UNK     0     165.234 151.764 164.979  0.00  0.00     0.065 A 
HETATM    6  S   UNK     0     166.709 151.437 164.821  0.00  0.00    -0.194 SA
HETATM    7  C   UNK     0     168.340 149.861 162.819  0.00  0.00     0.125 A 
HETATM    8  C   UNK     0     167.362 149.364 161.851  0.00  0.00     0.211 A 
HETATM    9  O   UNK     0     167.807 148.514 160.673  0.00  0.00    -0.170 OA
ENDROOT
BRANCH   7  10
HETATM   10  N   UNK     0     169.814 149.534 162.660  0.00  0.00    -0.217 NA
HETATM   11  C   UNK     0     170.819 150.671 162.596  0.00  0.00     0.234 C 
HETATM   12  O   UNK     0     170.373 152.062 162.686  0.00  0.00    -0.167 OA
BRANCH  11  13
HETATM   13  C   UNK     0     172.294 150.345 162.438  0.00  0.00     0.165 C 
BRANCH  13  14
HETATM   14  C   UNK     0     173.112 149.716 163.642  0.00  0.00     0.091 A 
HETATM   15  C   UNK     0     172.343 149.684 164.975  0.00  0.00     0.108 A 
HETATM   16  S   UNK     0     173.293 149.047 166.006  0.00  0.00    -0.072 SA
HETATM   17  C   UNK     0     174.692 148.667 165.310  0.00  0.00     0.456 A 
HETATM   18  N   UNK     0     174.579 149.085 163.832  0.00  0.00    -0.229 NA
HETATM   19  N   UNK     0     175.906 148.012 165.994  0.00  0.00     0.656 N 
ENDBRANCH  13  14
BRANCH  13  20
HETATM   20  N   UNK     0     173.052 150.634 161.039  0.00  0.00    -0.126 NA
BRANCH  20  21
HETATM   21  O   UNK     0     172.834 149.708 159.826  0.00  0.00    -0.234 OA
HETATM   22  C   UNK     0     172.106 148.362 159.991  0.00  0.00     0.211 C 
ENDBRANCH  20  21
ENDBRANCH  13  20
ENDBRANCH  11  13
ENDBRANCH   7  10
BRANCH   3  23
HETATM   23  C   UNK     0     163.672 149.894 161.815  0.00  0.00     0.227 C 
HETATM   24  O   UNK     0     162.918 150.826 160.818  0.00  0.00    -0.643 OA
HETATM   25  O   UNK     0     163.356 148.341 161.768  0.00  0.00    -0.643 OA
ENDBRANCH   3  23
BRANCH   4  26
HETATM   26  C   UNK     0     162.730 151.567 164.119  0.00  0.00     0.089 C 
BRANCH  26  27
HETATM   27  S   UNK     0     162.340 152.982 164.511  0.00  0.00    -0.071 SA
BRANCH  27  28
HETATM   28  C   UNK     0     161.338 153.735 163.654  0.00  0.00     0.190 A 
HETATM   29  N   UNK     0     161.052 153.286 162.209  0.00  0.00    -0.192 NA
HETATM   30  C   UNK     0     160.050 154.040 161.352  0.00  0.00     0.260 A 
HETATM   31  C   UNK     0     159.284 155.301 161.932  0.00  0.00     0.274 A 
HETATM   32  O   UNK     0     159.764 153.590 159.907  0.00  0.00    -0.165 OA
HETATM   33  N   UNK     0     159.570 155.750 163.377  0.00  0.00    -0.136 NA
HETATM   34  O   UNK     0     158.282 156.054 161.075  0.00  0.00    -0.164 OA
HETATM   35  N   UNK     0     160.623 154.939 164.242  0.00  0.00    -0.225 N 
HETATM   36  C   UNK     0     160.909 155.388 165.686  0.00  0.00     0.156 C 
ENDBRANCH  27  28
ENDBRANCH  26  27
ENDBRANCH   4  26
TORSDOF 9
ENDMDL
MODEL 4
REMARK VINA RESULT:      -7.4      1.507      1.781
REMARK  9 active torsions:
REMARK  status: ('A' for Active; 'I' for Inactive)
REMARK    1  A    between atoms: C_3  and  C_21 
REMARK    2  A    between atoms: C_4  and  C_14 
REMARK    3  A    between atoms: C_7  and  N_9 
REMARK       I    between atoms: N_9  and  C_10 
REMARK    4  A    between atoms: C_10  and  C_13 
REMARK    5  A    between atoms: C_13  and  C_15 
REMARK    6  A    between atoms: C_13  and  N_20 
REMARK    7  A    between atoms: C_14  and  S_24 
REMARK    8  A    between atoms: N_20  and  O_35 
REMARK    9  A    between atoms: S_24  and  C_25 
ROOT
HETATM    1  C   UNK     0     145.684 128.837 169.541  0.00  0.00     0.308 A 
HETATM    2  N   UNK     0     145.993 127.789 168.568  0.00  0.00    -0.297 N 
HETATM    3  C   UNK     0     147.510 127.484 168.221  0.00  0.00     0.121 A 
HETATM    4  C   UNK     0     148.626 128.267 168.890  0.00  0.00    -0.002 A 
HETATM    5  C   UNK     0     148.317 129.314 169.864  0.00  0.00     0.065 A 
HETATM    6  S   UNK     0     146.875 129.633 170.220  0.00  0.00    -0.194 SA
HETATM    7  C   UNK     0     144.180 128.564 169.357  0.00  0.00     0.125 A 
HETATM    8  C   UNK     0     144.489 127.516 168.383  0.00  0.00     0.211 A 
HETATM    9  O   UNK     0     143.373 126.733 167.714  0.00  0.00    -0.170 OA
ENDROOT
BRANCH   7  10
HETATM   10  N   UNK     0     142.738 128.883 169.713  0.00  0.00    -0.217 NA
HETATM   11  C   UNK     0     142.143 130.206 169.265  0.00  0.00     0.234 C 
HETATM   12  O   UNK     0     142.948 131.161 168.502  0.00  0.00    -0.167 OA
BRANCH  11  13
HETATM   13  C   UNK     0     140.702 130.525 169.621  0.00  0.00     0.165 C 
BRANCH  13  14
HETATM   14  C   UNK     0     139.853 129.525 170.512  0.00  0.00     0.091 A 
HETATM   15  C   UNK     0     140.323 129.434 171.975  0.00  0.00     0.108 A 
HETATM   16  S   UNK     0     139.386 128.426 172.667  0.00  0.00    -0.072 SA
HETATM   17  C   UNK     0     138.301 127.869 171.619  0.00  0.00     0.456 A 
HETATM   18  N   UNK     0     138.593 128.555 170.272  0.00  0.00    -0.229 NA
HETATM   19  N   UNK     0     137.188 126.846 171.912  0.00  0.00     0.656 N 
ENDBRANCH  13  14
BRANCH  13  20
HETATM   20  N   UNK     0     140.011 131.890 169.097  0.00  0.00    -0.126 NA
BRANCH  20  21
HETATM   21  O   UNK     0     139.286 131.927 167.737  0.00  0.00    -0.234 OA
HETATM   22  C   UNK     0     138.423 130.737 167.279  0.00  0.00     0.211 C 
ENDBRANCH  20  21
ENDBRANCH  13  20
ENDBRANCH  11  13
ENDBRANCH   7  10
BRANCH   3  23
HETATM   23  C   UNK     0     147.836 126.382 167.196  0.00  0.00     0.227 C 
HETATM   24  O   UNK     0     148.045 126.671 165.679  0.00  0.00    -0.643 OA
HETATM   25  O   UNK     0     147.967 124.882 167.694  0.00  0.00    -0.643 OA
ENDBRANCH   3  23
BRANCH   4  26
HETATM   26  C   UNK     0     150.084 127.893 168.483  0.00  0.00     0.089 C 
BRANCH  26  27
HETATM   27  S   UNK     0     151.016 129.046 168.154  0.00  0.00    -0.071 SA
BRANCH  27  28
HETATM   28  C   UNK     0     151.783 129.719 169.279  0.00  0.00     0.190 A 
HETATM   29  N   UNK     0     151.335 131.090 169.819  0.00  0.00    -0.192 NA
HETATM   30  C   UNK     0     152.102 131.763 170.944  0.00  0.00     0.260 A 
HETATM   31  C   UNK     0     153.375 131.064 171.579  0.00  0.00     0.274 A 
HETATM   32  O   UNK     0     151.654 133.134 171.483  0.00  0.00    -0.165 OA
HETATM   33  N   UNK     0     153.823 129.692 171.040  0.00  0.00    -0.136 NA
HETATM   34  O   UNK     0     154.142 131.736 172.704  0.00  0.00    -0.164 OA
HETATM   35  N   UNK     0     152.998 129.020 169.865  0.00  0.00    -0.225 N 
HETATM   36  C   UNK     0     153.446 127.649 169.325  0.00  0.00     0.156 C 
ENDBRANCH  27  28
ENDBRANCH  26  27
ENDBRANCH   4  26
TORSDOF 9
ENDMDL
MODEL 5
REMARK VINA RESULT:      -7.3      2.346      2.907
REMARK  9 active torsions:
REMARK  status: ('A' for Active; 'I' for Inactive)
REMARK    1  A    between atoms: C_3  and  C_21 
REMARK    2  A    between atoms: C_4  and  C_14 
REMARK    3  A    between atoms: C_7  and  N_9 
REMARK       I    between atoms: N_9  and  C_10 
REMARK    4  A    between atoms: C_10  and  C_13 
REMARK    5  A    between atoms: C_13  and  C_15 
REMARK    6  A    between atoms: C_13  and  N_20 
REMARK    7  A    between atoms: C_14  and  S_24 
REMARK    8  A    between atoms: N_20  and  O_35 
REMARK    9  A    between atoms: S_24  and  C_25 
ROOT
HETATM    1  C   UNK     0     145.921 129.521 170.222  0.00  0.00     0.308 A 
HETATM    2  N   UNK     0     146.234 128.243 169.582  0.00  0.00    -0.297 N 
HETATM    3  C   UNK     0     147.739 127.922 169.199  0.00  0.00     0.121 A 
HETATM    4  C   UNK     0     148.839 128.927 169.492  0.00  0.00    -0.002 A 
HETATM    5  C   UNK     0     148.526 130.205 170.131  0.00  0.00     0.065 A 
HETATM    6  S   UNK     0     147.095 130.545 170.512  0.00  0.00    -0.194 SA
HETATM    7  C   UNK     0     144.432 129.130 170.273  0.00  0.00     0.125 A 
HETATM    8  C   UNK     0     144.745 127.852 169.634  0.00  0.00     0.211 A 
HETATM    9  O   UNK     0     143.645 126.847 169.341  0.00  0.00    -0.170 OA
ENDROOT
BRANCH   7  10
HETATM   10  N   UNK     0     143.002 129.470 170.654  0.00  0.00    -0.217 NA
HETATM   11  C   UNK     0     142.079 130.061 169.602  0.00  0.00     0.234 C 
HETATM   12  O   UNK     0     142.561 130.299 168.241  0.00  0.00    -0.167 OA
BRANCH  11  13
HETATM   13  C   UNK     0     140.649 130.401 169.982  0.00  0.00     0.165 C 
BRANCH  13  14
HETATM   14  C   UNK     0     139.843 129.479 170.990  0.00  0.00     0.091 A 
HETATM   15  C   UNK     0     139.927 127.975 170.669  0.00  0.00     0.108 A 
HETATM   16  S   UNK     0     139.092 127.258 171.745  0.00  0.00    -0.072 SA
HETATM   17  C   UNK     0     138.467 128.329 172.768  0.00  0.00     0.456 A 
HETATM   18  N   UNK     0     138.937 129.718 172.296  0.00  0.00    -0.229 NA
HETATM   19  N   UNK     0     137.573 128.021 173.983  0.00  0.00     0.656 N 
ENDBRANCH  13  14
BRANCH  13  20
HETATM   20  N   UNK     0     139.925 131.710 169.366  0.00  0.00    -0.126 NA
BRANCH  20  21
HETATM   21  O   UNK     0     139.266 131.655 167.974  0.00  0.00    -0.234 OA
HETATM   22  C   UNK     0     138.741 130.322 167.409  0.00  0.00     0.211 C 
ENDBRANCH  20  21
ENDBRANCH  13  20
ENDBRANCH  11  13
ENDBRANCH   7  10
BRANCH   3  23
HETATM   23  C   UNK     0     148.069 126.577 168.526  0.00  0.00     0.227 C 
HETATM   24  O   UNK     0     148.756 125.398 169.281  0.00  0.00    -0.643 OA
HETATM   25  O   UNK     0     147.698 126.369 166.999  0.00  0.00    -0.643 OA
ENDBRANCH   3  23
BRANCH   4  26
HETATM   26  C   UNK     0     150.286 128.519 169.078  0.00  0.00     0.089 C 
BRANCH  26  27
HETATM   27  S   UNK     0     151.420 129.336 169.672  0.00  0.00    -0.071 SA
BRANCH  27  28
HETATM   28  C   UNK     0     152.725 129.454 168.905  0.00  0.00     0.190 A 
HETATM   29  N   UNK     0     153.092 128.421 167.824  0.00  0.00    -0.192 NA
HETATM   30  C   UNK     0     154.397 128.539 167.057  0.00  0.00     0.260 A 
HETATM   31  C   UNK     0     155.402 129.728 167.357  0.00  0.00     0.274 A 
HETATM   32  O   UNK     0     154.764 127.505 165.976  0.00  0.00    -0.165 OA
HETATM   33  N   UNK     0     155.035 130.761 168.438  0.00  0.00    -0.136 NA
HETATM   34  O   UNK     0     156.707 129.846 166.590  0.00  0.00    -0.164 OA
HETATM   35  N   UNK     0     153.664 130.606 169.219  0.00  0.00    -0.225 N 
HETATM   36  C   UNK     0     153.297 131.640 170.300  0.00  0.00     0.156 C 
ENDBRANCH  27  28
ENDBRANCH  26  27
ENDBRANCH   4  26
TORSDOF 9
ENDMDL
MODEL 6
REMARK VINA RESULT:      -7.2      3.608      4.813
REMARK  9 active torsions:
REMARK  status: ('A' for Active; 'I' for Inactive)
REMARK    1  A    between atoms: C_3  and  C_21 
REMARK    2  A    between atoms: C_4  and  C_14 
REMARK    3  A    between atoms: C_7  and  N_9 
REMARK       I    between atoms: N_9  and  C_10 
REMARK    4  A    between atoms: C_10  and  C_13 
REMARK    5  A    between atoms: C_13  and  C_15 
REMARK    6  A    between atoms: C_13  and  N_20 
REMARK    7  A    between atoms: C_14  and  S_24 
REMARK    8  A    between atoms: N_20  and  O_35 
REMARK    9  A    between atoms: S_24  and  C_25 
ROOT
HETATM    1  C   UNK     0     146.024 128.989 170.214  0.00  0.00     0.308 A 
HETATM    2  N   UNK     0     146.362 127.634 169.777  0.00  0.00    -0.297 N 
HETATM    3  C   UNK     0     147.864 127.299 169.398  0.00  0.00     0.121 A 
HETATM    4  C   UNK     0     148.938 128.369 169.488  0.00  0.00    -0.002 A 
HETATM    5  C   UNK     0     148.600 129.724 169.925  0.00  0.00     0.065 A 
HETATM    6  S   UNK     0     147.171 130.080 170.295  0.00  0.00    -0.194 SA
HETATM    7  C   UNK     0     144.552 128.568 170.380  0.00  0.00     0.125 A 
HETATM    8  C   UNK     0     144.889 127.213 169.943  0.00  0.00     0.211 A 
HETATM    9  O   UNK     0     143.816 126.143 169.853  0.00  0.00    -0.170 OA
ENDROOT
BRANCH   7  10
HETATM   10  N   UNK     0     143.122 128.924 170.750  0.00  0.00    -0.217 NA
HETATM   11  C   UNK     0     142.381 129.959 169.922  0.00  0.00     0.234 C 
HETATM   12  O   UNK     0     143.034 130.603 168.782  0.00  0.00    -0.167 OA
BRANCH  11  13
HETATM   13  C   UNK     0     140.952 130.314 170.292  0.00  0.00     0.165 C 
BRANCH  13  14
HETATM   14  C   UNK     0     140.068 129.311 171.144  0.00  0.00     0.091 A 
HETATM   15  C   UNK     0     139.050 128.509 170.313  0.00  0.00     0.108 A 
HETATM   16  S   UNK     0     138.299 127.604 171.307  0.00  0.00    -0.072 SA
HETATM   17  C   UNK     0     138.854 127.837 172.798  0.00  0.00     0.456 A 
HETATM   18  N   UNK     0     139.960 128.904 172.696  0.00  0.00    -0.229 NA
HETATM   19  N   UNK     0     138.371 127.128 174.076  0.00  0.00     0.656 N 
ENDBRANCH  13  14
BRANCH  13  20
HETATM   20  N   UNK     0     140.310 131.722 169.823  0.00  0.00    -0.126 NA
BRANCH  20  21
HETATM   21  O   UNK     0     139.579 131.836 168.471  0.00  0.00    -0.234 OA
HETATM   22  C   UNK     0     140.333 132.302 167.212  0.00  0.00     0.211 C 
ENDBRANCH  20  21
ENDBRANCH  13  20
ENDBRANCH  11  13
ENDBRANCH   7  10
BRANCH   3  23
HETATM   23  C   UNK     0     148.220 125.873 168.938  0.00  0.00     0.227 C 
HETATM   24  O   UNK     0     148.009 125.378 167.475  0.00  0.00    -0.643 OA
HETATM   25  O   UNK     0     148.828 124.854 169.990  0.00  0.00    -0.643 OA
ENDBRANCH   3  23
BRANCH   4  26
HETATM   26  C   UNK     0     150.385 127.942 169.094  0.00  0.00     0.089 C 
BRANCH  26  27
HETATM   27  S   UNK     0     151.003 128.650 167.901  0.00  0.00    -0.071 SA
BRANCH  27  28
HETATM   28  C   UNK     0     150.782 128.082 166.510  0.00  0.00     0.190 A 
HETATM   29  N   UNK     0     149.361 127.983 165.924  0.00  0.00    -0.192 NA
HETATM   30  C   UNK     0     149.140 127.415 164.533  0.00  0.00     0.260 A 
HETATM   31  C   UNK     0     150.368 126.916 163.664  0.00  0.00     0.274 A 
HETATM   32  O   UNK     0     147.719 127.317 163.947  0.00  0.00    -0.165 OA
HETATM   33  N   UNK     0     151.788 127.015 164.250  0.00  0.00    -0.136 NA
HETATM   34  O   UNK     0     150.146 126.348 162.273  0.00  0.00    -0.164 OA
HETATM   35  N   UNK     0     151.981 127.613 165.705  0.00  0.00    -0.225 N 
HETATM   36  C   UNK     0     153.402 127.712 166.291  0.00  0.00     0.156 C 
ENDBRANCH  27  28
ENDBRANCH  26  27
ENDBRANCH   4  26
TORSDOF 9
ENDMDL
MODEL 7
REMARK VINA RESULT:      -7.1      2.713     11.186
REMARK  9 active torsions:
REMARK  status: ('A' for Active; 'I' for Inactive)
REMARK    1  A    between atoms: C_3  and  C_21 
REMARK    2  A    between atoms: C_4  and  C_14 
REMARK    3  A    between atoms: C_7  and  N_9 
REMARK       I    between atoms: N_9  and  C_10 
REMARK    4  A    between atoms: C_10  and  C_13 
REMARK    5  A    between atoms: C_13  and  C_15 
REMARK    6  A    between atoms: C_13  and  N_20 
REMARK    7  A    between atoms: C_14  and  S_24 
REMARK    8  A    between atoms: N_20  and  O_35 
REMARK    9  A    between atoms: S_24  and  C_25 
ROOT
HETATM    1  C   UNK     0     148.047 128.979 169.641  0.00  0.00     0.308 A 
HETATM    2  N   UNK     0     147.755 127.903 168.694  0.00  0.00    -0.297 N 
HETATM    3  C   UNK     0     146.243 127.555 168.367  0.00  0.00     0.121 A 
HETATM    4  C   UNK     0     145.115 128.327 169.026  0.00  0.00    -0.002 A 
HETATM    5  C   UNK     0     145.407 129.404 169.973  0.00  0.00     0.065 A 
HETATM    6  S   UNK     0     146.843 129.764 170.310  0.00  0.00    -0.194 SA
HETATM    7  C   UNK     0     149.556 128.736 169.451  0.00  0.00     0.125 A 
HETATM    8  C   UNK     0     149.264 127.660 168.504  0.00  0.00     0.211 A 
HETATM    9  O   UNK     0     150.393 126.887 167.845  0.00  0.00    -0.170 OA
ENDROOT
BRANCH   7  10
HETATM   10  N   UNK     0     150.993 129.096 169.788  0.00  0.00    -0.217 NA
HETATM   11  C   UNK     0     151.639 130.280 169.090  0.00  0.00     0.234 C 
HETATM   12  O   UNK     0     150.889 131.063 168.108  0.00  0.00    -0.167 OA
BRANCH  11  13
HETATM   13  C   UNK     0     153.076 130.640 169.427  0.00  0.00     0.165 C 
BRANCH  13  14
HETATM   14  C   UNK     0     154.280 129.886 168.725  0.00  0.00     0.091 A 
HETATM   15  C   UNK     0     155.590 130.694 168.684  0.00  0.00     0.108 A 
HETATM   16  S   UNK     0     156.625 129.803 167.972  0.00  0.00    -0.072 SA
HETATM   17  C   UNK     0     155.956 128.402 167.554  0.00  0.00     0.456 A 
HETATM   18  N   UNK     0     154.491 128.454 168.024  0.00  0.00    -0.229 NA
HETATM   19  N   UNK     0     156.651 127.238 166.825  0.00  0.00     0.656 N 
ENDBRANCH  13  14
BRANCH  13  20
HETATM   20  N   UNK     0     153.399 131.799 170.508  0.00  0.00    -0.126 NA
BRANCH  20  21
HETATM   21  O   UNK     0     153.067 131.593 171.999  0.00  0.00    -0.234 OA
HETATM   22  C   UNK     0     151.701 132.027 172.562  0.00  0.00     0.211 C 
ENDBRANCH  20  21
ENDBRANCH  13  20
ENDBRANCH  11  13
ENDBRANCH   7  10
BRANCH   3  23
HETATM   23  C   UNK     0     145.936 126.421 167.370  0.00  0.00     0.227 C 
HETATM   24  O   UNK     0     145.742 124.938 167.808  0.00  0.00    -0.643 OA
HETATM   25  O   UNK     0     145.808 126.766 165.828  0.00  0.00    -0.643 OA
ENDBRANCH   3  23
BRANCH   4  26
HETATM   26  C   UNK     0     143.663 127.911 168.639  0.00  0.00     0.089 C 
BRANCH  26  27
HETATM   27  S   UNK     0     142.719 129.029 168.232  0.00  0.00    -0.071 SA
BRANCH  27  28
HETATM   28  C   UNK     0     141.876 129.707 169.296  0.00  0.00     0.190 A 
HETATM   29  N   UNK     0     141.255 128.886 170.442  0.00  0.00    -0.192 NA
HETATM   30  C   UNK     0     140.412 129.565 171.507  0.00  0.00     0.260 A 
HETATM   31  C   UNK     0     140.157 131.129 171.455  0.00  0.00     0.274 A 
HETATM   32  O   UNK     0     139.791 128.744 172.652  0.00  0.00    -0.165 OA
HETATM   33  N   UNK     0     140.777 131.950 170.309  0.00  0.00    -0.136 NA
HETATM   34  O   UNK     0     139.313 131.808 172.519  0.00  0.00    -0.164 OA
HETATM   35  N   UNK     0     141.652 131.207 169.215  0.00  0.00    -0.225 N 
HETATM   36  C   UNK     0     142.272 132.029 168.070  0.00  0.00     0.156 C 
ENDBRANCH  27  28
ENDBRANCH  26  27
ENDBRANCH   4  26
TORSDOF 9
ENDMDL
MODEL 8
REMARK VINA RESULT:      -7.1     28.693     32.414
REMARK  9 active torsions:
REMARK  status: ('A' for Active; 'I' for Inactive)
REMARK    1  A    between atoms: C_3  and  C_21 
REMARK    2  A    between atoms: C_4  and  C_14 
REMARK    3  A    between atoms: C_7  and  N_9 
REMARK       I    between atoms: N_9  and  C_10 
REMARK    4  A    between atoms: C_10  and  C_13 
REMARK    5  A    between atoms: C_13  and  C_15 
REMARK    6  A    between atoms: C_13  and  N_20 
REMARK    7  A    between atoms: C_14  and  S_24 
REMARK    8  A    between atoms: N_20  and  O_35 
REMARK    9  A    between atoms: S_24  and  C_25 
ROOT
HETATM    1  C   UNK     0     167.188 151.087 163.060  0.00  0.00     0.308 A 
HETATM    2  N   UNK     0     166.128 150.436 162.291  0.00  0.00    -0.297 N 
HETATM    3  C   UNK     0     164.630 150.919 162.482  0.00  0.00     0.121 A 
HETATM    4  C   UNK     0     164.301 152.043 163.449  0.00  0.00    -0.002 A 
HETATM    5  C   UNK     0     165.361 152.694 164.218  0.00  0.00     0.065 A 
HETATM    6  S   UNK     0     166.807 152.256 164.060  0.00  0.00    -0.194 SA
HETATM    7  C   UNK     0     168.232 150.168 162.398  0.00  0.00     0.125 A 
HETATM    8  C   UNK     0     167.172 149.517 161.629  0.00  0.00     0.211 A 
HETATM    9  O   UNK     0     167.501 148.394 160.662  0.00  0.00    -0.170 OA
ENDROOT
BRANCH   7  10
HETATM   10  N   UNK     0     169.678 149.730 162.240  0.00  0.00    -0.217 NA
HETATM   11  C   UNK     0     170.787 150.716 162.564  0.00  0.00     0.234 C 
HETATM   12  O   UNK     0     170.467 152.068 163.022  0.00  0.00    -0.167 OA
BRANCH  11  13
HETATM   13  C   UNK     0     172.232 150.278 162.406  0.00  0.00     0.165 C 
BRANCH  13  14
HETATM   14  C   UNK     0     173.053 149.747 163.655  0.00  0.00     0.091 A 
HETATM   15  C   UNK     0     172.226 149.638 164.950  0.00  0.00     0.108 A 
HETATM   16  S   UNK     0     173.187 149.112 166.032  0.00  0.00    -0.072 SA
HETATM   17  C   UNK     0     174.652 148.884 165.410  0.00  0.00     0.456 A 
HETATM   18  N   UNK     0     174.568 149.281 163.924  0.00  0.00    -0.229 NA
HETATM   19  N   UNK     0     175.894 148.368 166.158  0.00  0.00     0.656 N 
ENDBRANCH  13  14
BRANCH  13  20
HETATM   20  N   UNK     0     172.957 150.346 160.962  0.00  0.00    -0.126 NA
BRANCH  20  21
HETATM   21  O   UNK     0     172.152 150.100 159.671  0.00  0.00    -0.234 OA
HETATM   22  C   UNK     0     171.774 148.668 159.247  0.00  0.00     0.211 C 
ENDBRANCH  20  21
ENDBRANCH  13  20
ENDBRANCH  11  13
ENDBRANCH   7  10
BRANCH   3  23
HETATM   23  C   UNK     0     163.513 150.234 161.672  0.00  0.00     0.227 C 
HETATM   24  O   UNK     0     163.085 148.753 161.905  0.00  0.00    -0.643 OA
HETATM   25  O   UNK     0     162.758 151.060 160.549  0.00  0.00    -0.643 OA
ENDBRANCH   3  23
BRANCH   4  26
HETATM   26  C   UNK     0     162.799 152.447 163.566  0.00  0.00     0.089 C 
BRANCH  26  27
HETATM   27  S   UNK     0     162.401 153.775 162.948  0.00  0.00    -0.071 SA
BRANCH  27  28
HETATM   28  C   UNK     0     161.228 154.541 163.535  0.00  0.00     0.190 A 
HETATM   29  N   UNK     0     161.171 154.845 165.044  0.00  0.00    -0.192 NA
HETATM   30  C   UNK     0     159.997 155.610 165.631  0.00  0.00     0.260 A 
HETATM   31  C   UNK     0     158.814 156.107 164.699  0.00  0.00     0.274 A 
HETATM   32  O   UNK     0     159.940 155.914 167.139  0.00  0.00    -0.165 OA
HETATM   33  N   UNK     0     158.872 155.802 163.191  0.00  0.00    -0.136 NA
HETATM   34  O   UNK     0     157.641 156.872 165.287  0.00  0.00    -0.164 OA
HETATM   35  N   UNK     0     160.112 155.001 162.614  0.00  0.00    -0.225 N 
HETATM   36  C   UNK     0     160.170 154.697 161.105  0.00  0.00     0.156 C 
ENDBRANCH  27  28
ENDBRANCH  26  27
ENDBRANCH   4  26
TORSDOF 9
ENDMDL
MODEL 9
REMARK VINA RESULT:      -7.1     39.007     40.538
REMARK  9 active torsions:
REMARK  status: ('A' for Active; 'I' for Inactive)
REMARK    1  A    between atoms: C_3  and  C_21 
REMARK    2  A    between atoms: C_4  and  C_14 
REMARK    3  A    between atoms: C_7  and  N_9 
REMARK       I    between atoms: N_9  and  C_10 
REMARK    4  A    between atoms: C_10  and  C_13 
REMARK    5  A    between atoms: C_13  and  C_15 
REMARK    6  A    between atoms: C_13  and  N_20 
REMARK    7  A    between atoms: C_14  and  S_24 
REMARK    8  A    between atoms: N_20  and  O_35 
REMARK    9  A    between atoms: S_24  and  C_25 
ROOT
HETATM    1  C   UNK     0     151.381 163.701 149.073  0.00  0.00     0.308 A 
HETATM    2  N   UNK     0     151.769 164.431 150.280  0.00  0.00    -0.297 N 
HETATM    3  C   UNK     0     151.837 166.014 150.234  0.00  0.00     0.121 A 
HETATM    4  C   UNK     0     151.505 166.762 148.955  0.00  0.00    -0.002 A 
HETATM    5  C   UNK     0     151.117 166.032 147.748  0.00  0.00     0.065 A 
HETATM    6  S   UNK     0     151.041 164.516 147.756  0.00  0.00    -0.194 SA
HETATM    7  C   UNK     0     151.532 162.368 149.830  0.00  0.00     0.125 A 
HETATM    8  C   UNK     0     151.920 163.098 151.037  0.00  0.00     0.211 A 
HETATM    9  O   UNK     0     152.252 162.350 152.317  0.00  0.00    -0.170 OA
ENDROOT
BRANCH   7  10
HETATM   10  N   UNK     0     151.456 160.852 149.839  0.00  0.00    -0.217 NA
HETATM   11  C   UNK     0     150.193 160.179 150.348  0.00  0.00     0.234 C 
HETATM   12  O   UNK     0     149.065 160.981 150.824  0.00  0.00    -0.167 OA
BRANCH  11  13
HETATM   13  C   UNK     0     150.117 158.662 150.357  0.00  0.00     0.165 C 
BRANCH  13  14
HETATM   14  C   UNK     0     148.736 157.925 150.104  0.00  0.00     0.091 A 
HETATM   15  C   UNK     0     148.739 156.435 150.494  0.00  0.00     0.108 A 
HETATM   16  S   UNK     0     147.328 155.904 150.178  0.00  0.00    -0.072 SA
HETATM   17  C   UNK     0     146.415 157.081 149.575  0.00  0.00     0.456 A 
HETATM   18  N   UNK     0     147.295 158.344 149.528  0.00  0.00    -0.229 NA
HETATM   19  N   UNK     0     144.946 156.963 149.131  0.00  0.00     0.656 N 
ENDBRANCH  13  14
BRANCH  13  20
HETATM   20  N   UNK     0     151.443 157.776 150.624  0.00  0.00    -0.126 NA
BRANCH  20  21
HETATM   21  O   UNK     0     152.293 158.003 151.889  0.00  0.00    -0.234 OA
HETATM   22  C   UNK     0     152.862 156.806 152.673  0.00  0.00     0.211 C 
ENDBRANCH  20  21
ENDBRANCH  13  20
ENDBRANCH  11  13
ENDBRANCH   7  10
BRANCH   3  23
HETATM   23  C   UNK     0     152.246 166.783 151.504  0.00  0.00     0.227 C 
HETATM   24  O   UNK     0     151.271 167.028 152.696  0.00  0.00    -0.643 OA
HETATM   25  O   UNK     0     153.720 167.355 151.617  0.00  0.00    -0.643 OA
ENDBRANCH   3  23
BRANCH   4  26
HETATM   26  C   UNK     0     151.601 168.318 149.010  0.00  0.00     0.089 C 
BRANCH  26  27
HETATM   27  S   UNK     0     150.304 169.072 149.239  0.00  0.00    -0.071 SA
BRANCH  27  28
HETATM   28  C   UNK     0     150.139 169.888 150.509  0.00  0.00     0.190 A 
HETATM   29  N   UNK     0     149.201 169.407 151.631  0.00  0.00    -0.192 NA
HETATM   30  C   UNK     0     149.036 170.223 152.901  0.00  0.00     0.260 A 
HETATM   31  C   UNK     0     149.829 171.583 153.092  0.00  0.00     0.274 A 
HETATM   32  O   UNK     0     148.098 169.741 154.023  0.00  0.00    -0.165 OA
HETATM   33  N   UNK     0     150.768 172.064 151.970  0.00  0.00    -0.136 NA
HETATM   34  O   UNK     0     149.665 172.399 154.362  0.00  0.00    -0.164 OA
HETATM   35  N   UNK     0     150.914 171.186 150.658  0.00  0.00    -0.225 N 
HETATM   36  C   UNK     0     151.853 171.668 149.536  0.00  0.00     0.156 C 
ENDBRANCH  27  28
ENDBRANCH  26  27
ENDBRANCH   4  26
TORSDOF 9
ENDMDL
MODEL 10
REMARK VINA RESULT:      -6.9     57.946     60.454
REMARK  9 active torsions:
REMARK  status: ('A' for Active; 'I' for Inactive)
REMARK    1  A    between atoms: C_3  and  C_21 
REMARK    2  A    between atoms: C_4  and  C_14 
REMARK    3  A    between atoms: C_7  and  N_9 
REMARK       I    between atoms: N_9  and  C_10 
REMARK    4  A    between atoms: C_10  and  C_13 
REMARK    5  A    between atoms: C_13  and  C_15 
REMARK    6  A    between atoms: C_13  and  N_20 
REMARK    7  A    between atoms: C_14  and  S_24 
REMARK    8  A    between atoms: N_20  and  O_35 
REMARK    9  A    between atoms: S_24  and  C_25 
ROOT
HETATM    1  C   UNK     0     125.630 182.847 149.734  0.00  0.00     0.308 A 
HETATM    2  N   UNK     0     126.017 181.436 149.779  0.00  0.00    -0.297 N 
HETATM    3  C   UNK     0     126.874 180.834 148.588  0.00  0.00     0.121 A 
HETATM    4  C   UNK     0     127.286 181.709 147.417  0.00  0.00    -0.002 A 
HETATM    5  C   UNK     0     126.900 183.119 147.372  0.00  0.00     0.065 A 
HETATM    6  S   UNK     0     126.080 183.729 148.495  0.00  0.00    -0.194 SA
HETATM    7  C   UNK     0     124.905 182.691 151.083  0.00  0.00     0.125 A 
HETATM    8  C   UNK     0     125.292 181.281 151.128  0.00  0.00     0.211 A 
HETATM    9  O   UNK     0     124.879 180.406 152.299  0.00  0.00    -0.170 OA
ENDROOT
BRANCH   7  10
HETATM   10  N   UNK     0     124.085 183.301 152.207  0.00  0.00    -0.217 NA
HETATM   11  C   UNK     0     122.694 183.828 151.902  0.00  0.00     0.234 C 
HETATM   12  O   UNK     0     122.152 183.751 150.546  0.00  0.00    -0.167 OA
BRANCH  11  13
HETATM   13  C   UNK     0     121.874 184.438 153.025  0.00  0.00     0.165 C 
BRANCH  13  14
HETATM   14  C   UNK     0     122.553 184.798 154.413  0.00  0.00     0.091 A 
HETATM   15  C   UNK     0     121.687 184.463 155.641  0.00  0.00     0.108 A 
HETATM   16  S   UNK     0     122.509 184.880 156.875  0.00  0.00    -0.072 SA
HETATM   17  C   UNK     0     123.923 185.493 156.417  0.00  0.00     0.456 A 
HETATM   18  N   UNK     0     123.951 185.442 154.878  0.00  0.00    -0.229 NA
HETATM   19  N   UNK     0     125.032 186.026 157.343  0.00  0.00     0.656 N 
ENDBRANCH  13  14
BRANCH  13  20
HETATM   20  N   UNK     0     120.296 184.730 152.824  0.00  0.00    -0.126 NA
BRANCH  20  21
HETATM   21  O   UNK     0     119.257 183.620 153.079  0.00  0.00    -0.234 OA
HETATM   22  C   UNK     0     117.894 183.647 152.363  0.00  0.00     0.211 C 
ENDBRANCH  20  21
ENDBRANCH  13  20
ENDBRANCH  11  13
ENDBRANCH   7  10
BRANCH   3  23
HETATM   23  C   UNK     0     127.281 179.350 148.635  0.00  0.00     0.227 C 
HETATM   24  O   UNK     0     126.359 178.202 148.122  0.00  0.00    -0.643 OA
HETATM   25  O   UNK     0     128.697 178.959 149.230  0.00  0.00    -0.643 OA
ENDBRANCH   3  23
BRANCH   4  26
HETATM   26  C   UNK     0     128.127 181.025 146.296  0.00  0.00     0.089 C 
BRANCH  26  27
HETATM   27  S   UNK     0     127.417 180.758 144.980  0.00  0.00    -0.071 SA
BRANCH  27  28
HETATM   28  C   UNK     0     128.217 180.220 143.806  0.00  0.00     0.190 A 
HETATM   29  N   UNK     0     128.794 181.180 142.749  0.00  0.00    -0.192 NA
HETATM   30  C   UNK     0     129.594 180.642 141.576  0.00  0.00     0.260 A 
HETATM   31  C   UNK     0     129.846 179.084 141.421  0.00  0.00     0.274 A 
HETATM   32  O   UNK     0     130.171 181.601 140.519  0.00  0.00    -0.165 OA
HETATM   33  N   UNK     0     129.269 178.124 142.478  0.00  0.00    -0.136 NA
HETATM   34  O   UNK     0     130.646 178.546 140.247  0.00  0.00    -0.164 OA
HETATM   35  N   UNK     0     128.439 178.722 143.690  0.00  0.00    -0.225 N 
HETATM   36  C   UNK     0     127.862 177.762 144.747  0.00  0.00     0.156 C 
ENDBRANCH  27  28
ENDBRANCH  26  27
ENDBRANCH   4  26
TORSDOF 9
ENDMDL
