MODEL 1
REMARK VINA RESULT:      -6.6      0.000      0.000
REMARK  1 active torsions:
REMARK  status: ('A' for Active; 'I' for Inactive)
REMARK    1  A    between atoms: N_4  and  C_11 
ROOT
HETATM    1 Cl   UNK     0     166.092 135.702 112.789  0.00  0.00    -0.091 Cl
HETATM    2  O   UNK     0     161.392 138.191 118.541  0.00  0.00    -0.171 OA
HETATM    3  O   UNK     0     160.542 142.098 115.243  0.00  0.00    -0.171 OA
HETATM    4  N   UNK     0     162.793 137.809 116.375  0.00  0.00    -0.295 N 
HETATM    5  N   UNK     0     162.226 140.417 114.172  0.00  0.00    -0.307 N 
HETATM    6  C   UNK     0     163.390 138.029 114.973  0.00  0.00     0.059 A 
HETATM    7  C   UNK     0     163.137 139.189 113.992  0.00  0.00     0.052 A 
HETATM    8  C   UNK     0     161.150 140.021 116.700  0.00  0.00     0.091 A 
HETATM    9  C   UNK     0     161.796 138.696 117.144  0.00  0.00     0.201 A 
HETATM   10  C   UNK     0     161.341 140.787 115.378  0.00  0.00     0.198 A 
HETATM   11  C   UNK     0     164.387 136.831 114.591  0.00  0.00     0.079 A 
HETATM   12  C   UNK     0     163.865 139.234 112.564  0.00  0.00     0.050 A 
HETATM   13  C   UNK     0     162.194 141.405 112.992  0.00  0.00     0.132 C 
HETATM   14  C   UNK     0     165.132 136.843 113.171  0.00  0.00     0.020 A 
HETATM   15  C   UNK     0     164.869 138.053 112.149  0.00  0.00     0.040 A 
ENDROOT
BRANCH   4  16
HETATM   16  C   UNK     0     163.254 136.534 117.105  0.00  0.00     0.021 A 
HETATM   17  C   UNK     0     162.486 135.213 116.909  0.00  0.00     0.040 A 
HETATM   18  C   UNK     0     162.947 133.938 117.639  0.00  0.00     0.006 A 
HETATM   19  C   UNK     0     164.175 133.984 118.566  0.00  0.00     0.001 A 
HETATM   20  C   UNK     0     164.944 135.305 118.762  0.00  0.00     0.006 A 
HETATM   21  C   UNK     0     164.483 136.579 118.032  0.00  0.00     0.040 A 
ENDBRANCH   4  16
TORSDOF 1
ENDMDL
MODEL 2
REMARK VINA RESULT:      -6.3     29.362     31.650
REMARK  1 active torsions:
REMARK  status: ('A' for Active; 'I' for Inactive)
REMARK    1  A    between atoms: N_4  and  C_11 
ROOT
HETATM    1 Cl   UNK     0     147.811 139.385 145.082  0.00  0.00    -0.091 Cl
HETATM    2  O   UNK     0     155.383 138.923 143.125  0.00  0.00    -0.171 OA
HETATM    3  O   UNK     0     155.390 135.190 146.722  0.00  0.00    -0.171 OA
HETATM    4  N   UNK     0     152.985 138.680 144.120  0.00  0.00    -0.295 N 
HETATM    5  N   UNK     0     152.989 136.189 146.521  0.00  0.00    -0.307 N 
HETATM    6  C   UNK     0     151.813 138.174 144.980  0.00  0.00     0.059 A 
HETATM    7  C   UNK     0     151.814 137.065 146.049  0.00  0.00     0.052 A 
HETATM    8  C   UNK     0     155.102 137.102 144.970  0.00  0.00     0.091 A 
HETATM    9  C   UNK     0     154.449 138.204 144.115  0.00  0.00     0.201 A 
HETATM   10  C   UNK     0     154.452 136.205 146.041  0.00  0.00     0.198 A 
HETATM   11  C   UNK     0     150.469 138.978 144.631  0.00  0.00     0.079 A 
HETATM   12  C   UNK     0     150.473 136.683 146.842  0.00  0.00     0.050 A 
HETATM   13  C   UNK     0     152.657 135.160 147.618  0.00  0.00     0.132 C 
HETATM   14  C   UNK     0     149.109 138.623 145.405  0.00  0.00     0.020 A 
HETATM   15  C   UNK     0     149.111 137.467 146.518  0.00  0.00     0.040 A 
ENDROOT
BRANCH   4  16
HETATM   16  C   UNK     0     152.649 139.814 143.134  0.00  0.00     0.021 A 
HETATM   17  C   UNK     0     152.742 141.283 143.587  0.00  0.00     0.040 A 
HETATM   18  C   UNK     0     152.406 142.417 142.601  0.00  0.00     0.006 A 
HETATM   19  C   UNK     0     151.977 142.082 141.161  0.00  0.00     0.001 A 
HETATM   20  C   UNK     0     151.883 140.613 140.707  0.00  0.00     0.006 A 
HETATM   21  C   UNK     0     152.219 139.480 141.693  0.00  0.00     0.040 A 
ENDBRANCH   4  16
TORSDOF 1
ENDMDL
MODEL 3
REMARK VINA RESULT:      -6.2     43.770     45.389
REMARK  1 active torsions:
REMARK  status: ('A' for Active; 'I' for Inactive)
REMARK    1  A    between atoms: N_4  and  C_11 
ROOT
HETATM    1 Cl   UNK     0     143.835 136.058 153.070  0.00  0.00    -0.091 Cl
HETATM    2  O   UNK     0     137.323 131.907 154.386  0.00  0.00    -0.171 OA
HETATM    3  O   UNK     0     140.654 128.682 156.705  0.00  0.00    -0.171 OA
HETATM    4  N   UNK     0     139.733 132.886 154.211  0.00  0.00    -0.295 N 
HETATM    5  N   UNK     0     141.957 130.734 155.759  0.00  0.00    -0.307 N 
HETATM    6  C   UNK     0     141.258 133.030 154.366  0.00  0.00     0.059 A 
HETATM    7  C   UNK     0     142.248 132.072 155.055  0.00  0.00     0.052 A 
HETATM    8  C   UNK     0     139.208 130.475 155.479  0.00  0.00     0.091 A 
HETATM    9  C   UNK     0     138.820 131.749 154.706  0.00  0.00     0.201 A 
HETATM   10  C   UNK     0     140.604 130.023 155.947  0.00  0.00     0.198 A 
HETATM   11  C   UNK     0     141.768 134.390 153.684  0.00  0.00     0.079 A 
HETATM   12  C   UNK     0     143.816 132.407 155.109  0.00  0.00     0.050 A 
HETATM   13  C   UNK     0     143.180 130.011 156.352  0.00  0.00     0.132 C 
HETATM   14  C   UNK     0     143.329 134.757 153.720  0.00  0.00     0.020 A 
HETATM   15  C   UNK     0     144.361 133.759 154.438  0.00  0.00     0.040 A 
ENDROOT
BRANCH   4  16
HETATM   16  C   UNK     0     139.027 134.031 153.461  0.00  0.00     0.021 A 
HETATM   17  C   UNK     0     138.926 133.999 151.925  0.00  0.00     0.040 A 
HETATM   18  C   UNK     0     138.220 135.144 151.175  0.00  0.00     0.006 A 
HETATM   19  C   UNK     0     137.614 136.320 151.962  0.00  0.00     0.001 A 
HETATM   20  C   UNK     0     137.714 136.352 153.499  0.00  0.00     0.006 A 
HETATM   21  C   UNK     0     138.420 135.208 154.248  0.00  0.00     0.040 A 
ENDBRANCH   4  16
TORSDOF 1
ENDMDL
MODEL 4
REMARK VINA RESULT:      -6.2     17.082     19.739
REMARK  1 active torsions:
REMARK  status: ('A' for Active; 'I' for Inactive)
REMARK    1  A    between atoms: N_4  and  C_11 
ROOT
HETATM    1 Cl   UNK     0     144.327 145.069 115.636  0.00  0.00    -0.091 Cl
HETATM    2  O   UNK     0     148.927 146.323 121.852  0.00  0.00    -0.171 OA
HETATM    3  O   UNK     0     144.427 145.998 124.403  0.00  0.00    -0.171 OA
HETATM    4  N   UNK     0     147.001 145.892 120.148  0.00  0.00    -0.295 N 
HETATM    5  N   UNK     0     143.996 145.674 121.850  0.00  0.00    -0.307 N 
HETATM    6  C   UNK     0     145.591 145.647 119.580  0.00  0.00     0.059 A 
HETATM    7  C   UNK     0     144.253 145.550 120.337  0.00  0.00     0.052 A 
HETATM    8  C   UNK     0     146.538 146.115 122.874  0.00  0.00     0.091 A 
HETATM    9  C   UNK     0     147.422 146.100 121.614  0.00  0.00     0.201 A 
HETATM   10  C   UNK     0     145.013 145.926 122.980  0.00  0.00     0.198 A 
HETATM   11  C   UNK     0     145.646 145.488 117.984  0.00  0.00     0.079 A 
HETATM   12  C   UNK     0     142.879 145.288 119.553  0.00  0.00     0.050 A 
HETATM   13  C   UNK     0     142.528 145.528 122.293  0.00  0.00     0.132 C 
HETATM   14  C   UNK     0     144.291 145.224 117.167  0.00  0.00     0.020 A 
HETATM   15  C   UNK     0     142.898 145.123 117.957  0.00  0.00     0.040 A 
ENDROOT
BRANCH   4  16
HETATM   16  C   UNK     0     148.140 145.933 119.113  0.00  0.00     0.021 A 
HETATM   17  C   UNK     0     148.822 147.271 118.770  0.00  0.00     0.040 A 
HETATM   18  C   UNK     0     149.961 147.313 117.735  0.00  0.00     0.006 A 
HETATM   19  C   UNK     0     150.419 146.017 117.043  0.00  0.00     0.001 A 
HETATM   20  C   UNK     0     149.738 144.678 117.385  0.00  0.00     0.006 A 
HETATM   21  C   UNK     0     148.599 144.637 118.420  0.00  0.00     0.040 A 
ENDBRANCH   4  16
TORSDOF 1
ENDMDL
MODEL 5
REMARK VINA RESULT:      -6.1     90.348     91.507
REMARK  1 active torsions:
REMARK  status: ('A' for Active; 'I' for Inactive)
REMARK    1  A    between atoms: N_4  and  C_11 
ROOT
HETATM    1 Cl   UNK     0     195.104 115.178 196.292  0.00  0.00    -0.091 Cl
HETATM    2  O   UNK     0     190.092 110.770 200.394  0.00  0.00    -0.171 OA
HETATM    3  O   UNK     0     188.171 115.393 201.735  0.00  0.00    -0.171 OA
HETATM    4  N   UNK     0     191.480 112.648 199.234  0.00  0.00    -0.295 N 
HETATM    5  N   UNK     0     190.198 115.735 200.129  0.00  0.00    -0.307 N 
HETATM    6  C   UNK     0     191.959 114.047 198.806  0.00  0.00     0.059 A 
HETATM    7  C   UNK     0     191.389 115.422 199.205  0.00  0.00     0.052 A 
HETATM    8  C   UNK     0     189.335 113.213 200.900  0.00  0.00     0.091 A 
HETATM    9  C   UNK     0     190.312 112.276 200.166  0.00  0.00     0.201 A 
HETATM   10  C   UNK     0     189.284 114.752 200.884  0.00  0.00     0.198 A 
HETATM   11  C   UNK     0     193.219 113.935 197.819  0.00  0.00     0.079 A 
HETATM   12  C   UNK     0     192.038 116.777 198.644  0.00  0.00     0.050 A 
HETATM   13  C   UNK     0     189.879 117.229 200.325  0.00  0.00     0.132 C 
HETATM   14  C   UNK     0     193.894 115.269 197.240  0.00  0.00     0.020 A 
HETATM   15  C   UNK     0     193.299 116.701 197.655  0.00  0.00     0.040 A 
ENDROOT
BRANCH   4  16
HETATM   16  C   UNK     0     192.274 111.464 198.653  0.00  0.00     0.021 A 
HETATM   17  C   UNK     0     191.820 110.803 197.338  0.00  0.00     0.040 A 
HETATM   18  C   UNK     0     192.614 109.618 196.757  0.00  0.00     0.006 A 
HETATM   19  C   UNK     0     193.862 109.094 197.491  0.00  0.00     0.001 A 
HETATM   20  C   UNK     0     194.316 109.755 198.806  0.00  0.00     0.006 A 
HETATM   21  C   UNK     0     193.523 110.939 199.387  0.00  0.00     0.040 A 
ENDBRANCH   4  16
TORSDOF 1
ENDMDL
MODEL 6
REMARK VINA RESULT:      -6.0     29.402     31.308
REMARK  1 active torsions:
REMARK  status: ('A' for Active; 'I' for Inactive)
REMARK    1  A    between atoms: N_4  and  C_11 
ROOT
HETATM    1 Cl   UNK     0     149.830 136.347 147.833  0.00  0.00    -0.091 Cl
HETATM    2  O   UNK     0     155.849 139.062 143.618  0.00  0.00    -0.171 OA
HETATM    3  O   UNK     0     152.045 140.914 140.624  0.00  0.00    -0.171 OA
HETATM    4  N   UNK     0     153.546 138.395 144.642  0.00  0.00    -0.295 N 
HETATM    5  N   UNK     0     151.005 139.631 142.643  0.00  0.00    -0.307 N 
HETATM    6  C   UNK     0     152.024 138.261 144.831  0.00  0.00     0.059 A 
HETATM    7  C   UNK     0     150.893 138.811 143.942  0.00  0.00     0.052 A 
HETATM    8  C   UNK     0     153.749 139.872 142.302  0.00  0.00     0.091 A 
HETATM    9  C   UNK     0     154.314 139.112 143.516  0.00  0.00     0.201 A 
HETATM   10  C   UNK     0     152.277 140.103 141.914  0.00  0.00     0.198 A 
HETATM   11  C   UNK     0     151.693 137.421 146.158  0.00  0.00     0.079 A 
HETATM   12  C   UNK     0     149.354 138.559 144.317  0.00  0.00     0.050 A 
HETATM   13  C   UNK     0     149.671 140.031 141.988  0.00  0.00     0.132 C 
HETATM   14  C   UNK     0     150.165 137.151 146.563  0.00  0.00     0.020 A 
HETATM   15  C   UNK     0     148.986 137.724 145.636  0.00  0.00     0.040 A 
ENDROOT
BRANCH   4  16
HETATM   16  C   UNK     0     154.415 137.723 145.721  0.00  0.00     0.021 A 
HETATM   17  C   UNK     0     154.608 136.195 145.714  0.00  0.00     0.040 A 
HETATM   18  C   UNK     0     155.477 135.523 146.792  0.00  0.00     0.006 A 
HETATM   19  C   UNK     0     156.154 136.379 147.878  0.00  0.00     0.001 A 
HETATM   20  C   UNK     0     155.961 137.907 147.886  0.00  0.00     0.006 A 
HETATM   21  C   UNK     0     155.092 138.578 146.808  0.00  0.00     0.040 A 
ENDBRANCH   4  16
TORSDOF 1
ENDMDL
MODEL 7
REMARK VINA RESULT:      -6.0     86.086     89.124
REMARK  1 active torsions:
REMARK  status: ('A' for Active; 'I' for Inactive)
REMARK    1  A    between atoms: N_4  and  C_11 
ROOT
HETATM    1 Cl   UNK     0     189.929 111.440 192.940  0.00  0.00    -0.091 Cl
HETATM    2  O   UNK     0     195.446 112.862 198.317  0.00  0.00    -0.171 OA
HETATM    3  O   UNK     0     195.315 117.601 196.220  0.00  0.00    -0.171 OA
HETATM    4  N   UNK     0     193.684 112.905 196.395  0.00  0.00    -0.295 N 
HETATM    5  N   UNK     0     193.596 116.069 194.995  0.00  0.00    -0.307 N 
HETATM    6  C   UNK     0     192.809 113.419 195.237  0.00  0.00     0.059 A 
HETATM    7  C   UNK     0     192.770 114.827 194.614  0.00  0.00     0.052 A 
HETATM    8  C   UNK     0     195.174 115.143 197.082  0.00  0.00     0.091 A 
HETATM    9  C   UNK     0     194.737 113.672 197.216  0.00  0.00     0.201 A 
HETATM   10  C   UNK     0     194.666 116.209 196.094  0.00  0.00     0.198 A 
HETATM   11  C   UNK     0     191.856 112.250 194.689  0.00  0.00     0.079 A 
HETATM   12  C   UNK     0     191.776 115.163 193.401  0.00  0.00     0.050 A 
HETATM   13  C   UNK     0     193.316 117.338 194.169  0.00  0.00     0.132 C 
HETATM   14  C   UNK     0     190.850 112.551 193.477  0.00  0.00     0.020 A 
HETATM   15  C   UNK     0     190.809 114.018 192.828  0.00  0.00     0.040 A 
ENDROOT
BRANCH   4  16
HETATM   16  C   UNK     0     193.480 111.429 196.783  0.00  0.00     0.021 A 
HETATM   17  C   UNK     0     192.452 111.052 197.866  0.00  0.00     0.040 A 
HETATM   18  C   UNK     0     192.248 109.576 198.254  0.00  0.00     0.006 A 
HETATM   19  C   UNK     0     193.072 108.477 197.560  0.00  0.00     0.001 A 
HETATM   20  C   UNK     0     194.100 108.853 196.476  0.00  0.00     0.006 A 
HETATM   21  C   UNK     0     194.304 110.329 196.089  0.00  0.00     0.040 A 
ENDBRANCH   4  16
TORSDOF 1
ENDMDL
MODEL 8
REMARK VINA RESULT:      -5.7     50.885     51.613
REMARK  1 active torsions:
REMARK  status: ('A' for Active; 'I' for Inactive)
REMARK    1  A    between atoms: N_4  and  C_11 
ROOT
HETATM    1 Cl   UNK     0     159.428 145.779 165.282  0.00  0.00    -0.091 Cl
HETATM    2  O   UNK     0     152.591 149.566 165.823  0.00  0.00    -0.171 OA
HETATM    3  O   UNK     0     155.595 153.715 165.023  0.00  0.00    -0.171 OA
HETATM    4  N   UNK     0     155.071 148.799 165.568  0.00  0.00    -0.295 N 
HETATM    5  N   UNK     0     157.076 151.568 165.034  0.00  0.00    -0.307 N 
HETATM    6  C   UNK     0     156.595 148.854 165.361  0.00  0.00     0.059 A 
HETATM    7  C   UNK     0     157.488 150.087 165.123  0.00  0.00     0.052 A 
HETATM    8  C   UNK     0     154.327 151.467 165.409  0.00  0.00     0.091 A 
HETATM    9  C   UNK     0     154.061 149.961 165.590  0.00  0.00     0.201 A 
HETATM   10  C   UNK     0     155.669 152.182 165.162  0.00  0.00     0.198 A 
HETATM   11  C   UNK     0     157.226 147.380 165.420  0.00  0.00     0.079 A 
HETATM   12  C   UNK     0     159.072 149.931 164.928  0.00  0.00     0.050 A 
HETATM   13  C   UNK     0     158.221 152.566 164.786  0.00  0.00     0.132 C 
HETATM   14  C   UNK     0     158.807 147.187 165.229  0.00  0.00     0.020 A 
HETATM   15  C   UNK     0     159.737 148.471 164.981  0.00  0.00     0.040 A 
ENDROOT
BRANCH   4  16
HETATM   16  C   UNK     0     154.476 147.394 165.783  0.00  0.00     0.021 A 
HETATM   17  C   UNK     0     154.069 146.536 164.571  0.00  0.00     0.040 A 
HETATM   18  C   UNK     0     153.475 145.132 164.786  0.00  0.00     0.006 A 
HETATM   19  C   UNK     0     153.288 144.586 166.213  0.00  0.00     0.001 A 
HETATM   20  C   UNK     0     153.695 145.444 167.426  0.00  0.00     0.006 A 
HETATM   21  C   UNK     0     154.289 146.847 167.211  0.00  0.00     0.040 A 
ENDBRANCH   4  16
TORSDOF 1
ENDMDL
MODEL 9
REMARK VINA RESULT:      -5.7     52.198     54.090
REMARK  1 active torsions:
REMARK  status: ('A' for Active; 'I' for Inactive)
REMARK    1  A    between atoms: N_4  and  C_11 
ROOT
HETATM    1 Cl   UNK     0     159.107 145.805 168.056  0.00  0.00    -0.091 Cl
HETATM    2  O   UNK     0     152.251 149.418 166.910  0.00  0.00    -0.171 OA
HETATM    3  O   UNK     0     154.399 153.009 169.970  0.00  0.00    -0.171 OA
HETATM    4  N   UNK     0     154.647 148.647 167.592  0.00  0.00    -0.295 N 
HETATM    5  N   UNK     0     156.081 151.044 169.635  0.00  0.00    -0.307 N 
HETATM    6  C   UNK     0     156.042 148.644 168.243  0.00  0.00     0.059 A 
HETATM    7  C   UNK     0     156.680 149.710 169.152  0.00  0.00     0.052 A 
HETATM    8  C   UNK     0     153.566 151.051 168.460  0.00  0.00     0.091 A 
HETATM    9  C   UNK     0     153.545 149.719 167.688  0.00  0.00     0.201 A 
HETATM   10  C   UNK     0     154.695 151.641 169.326  0.00  0.00     0.198 A 
HETATM   11  C   UNK     0     156.842 147.308 167.854  0.00  0.00     0.079 A 
HETATM   12  C   UNK     0     158.162 149.516 169.735  0.00  0.00     0.050 A 
HETATM   13  C   UNK     0     156.987 151.894 170.545  0.00  0.00     0.132 C 
HETATM   14  C   UNK     0     158.326 147.081 168.419  0.00  0.00     0.020 A 
HETATM   15  C   UNK     0     158.991 148.192 169.367  0.00  0.00     0.040 A 
ENDROOT
BRANCH   4  16
HETATM   16  C   UNK     0     154.309 147.417 166.730  0.00  0.00     0.021 A 
HETATM   17  C   UNK     0     153.742 146.146 167.389  0.00  0.00     0.040 A 
HETATM   18  C   UNK     0     153.404 144.916 166.527  0.00  0.00     0.006 A 
HETATM   19  C   UNK     0     153.632 144.957 165.005  0.00  0.00     0.001 A 
HETATM   20  C   UNK     0     154.199 146.228 164.345  0.00  0.00     0.006 A 
HETATM   21  C   UNK     0     154.537 147.457 165.207  0.00  0.00     0.040 A 
ENDBRANCH   4  16
TORSDOF 1
ENDMDL
MODEL 10
REMARK VINA RESULT:      -5.7     30.804     33.301
REMARK  1 active torsions:
REMARK  status: ('A' for Active; 'I' for Inactive)
REMARK    1  A    between atoms: N_4  and  C_11 
ROOT
HETATM    1 Cl   UNK     0     150.320 134.034 144.865  0.00  0.00    -0.091 Cl
HETATM    2  O   UNK     0     156.512 138.047 147.496  0.00  0.00    -0.171 OA
HETATM    3  O   UNK     0     157.006 133.934 150.611  0.00  0.00    -0.171 OA
HETATM    4  N   UNK     0     154.602 136.347 146.987  0.00  0.00    -0.295 N 
HETATM    5  N   UNK     0     154.931 133.601 149.067  0.00  0.00    -0.307 N 
HETATM    6  C   UNK     0     153.719 135.088 147.062  0.00  0.00     0.059 A 
HETATM    7  C   UNK     0     153.865 133.866 147.987  0.00  0.00     0.052 A 
HETATM    8  C   UNK     0     156.523 135.871 148.931  0.00  0.00     0.091 A 
HETATM    9  C   UNK     0     155.850 136.696 147.819  0.00  0.00     0.201 A 
HETATM   10  C   UNK     0     156.114 134.494 149.487  0.00  0.00     0.198 A 
HETATM   11  C   UNK     0     152.525 135.172 145.993  0.00  0.00     0.079 A 
HETATM   12  C   UNK     0     152.829 132.644 147.908  0.00  0.00     0.050 A 
HETATM   13  C   UNK     0     154.797 132.268 149.826  0.00  0.00     0.132 C 
HETATM   14  C   UNK     0     151.471 133.968 145.886  0.00  0.00     0.020 A 
HETATM   15  C   UNK     0     151.624 132.695 146.850  0.00  0.00     0.040 A 
ENDROOT
BRANCH   4  16
HETATM   16  C   UNK     0     154.181 137.397 145.942  0.00  0.00     0.021 A 
HETATM   17  C   UNK     0     154.689 137.287 144.491  0.00  0.00     0.040 A 
HETATM   18  C   UNK     0     154.268 138.337 143.446  0.00  0.00     0.006 A 
HETATM   19  C   UNK     0     153.341 139.496 143.851  0.00  0.00     0.001 A 
HETATM   20  C   UNK     0     152.833 139.607 145.301  0.00  0.00     0.006 A 
HETATM   21  C   UNK     0     153.254 138.558 146.346  0.00  0.00     0.040 A 
ENDBRANCH   4  16
TORSDOF 1
ENDMDL
