MODEL 1
REMARK VINA RESULT:      -7.9      0.000      0.000
REMARK  1 active torsions:
REMARK  status: ('A' for Active; 'I' for Inactive)
REMARK    1  A    between atoms: N_7  and  C_15 
ROOT
HETATM    1 Cl   UNK     0     149.490 149.132 144.205  0.00  0.00    -0.143 Cl
HETATM    2  O   UNK     0     152.356 142.397 142.480  0.00  0.00    -0.168 OA
HETATM    3  N   UNK     0     152.290 144.699 143.702  0.00  0.00    -0.223 NA
HETATM    4  N   UNK     0     149.361 145.127 141.910  0.00  0.00    -0.240 NA
HETATM    5  C   UNK     0     150.563 146.871 143.703  0.00  0.00     0.042 A 
HETATM    6  C   UNK     0     151.819 146.097 144.146  0.00  0.00     0.064 A 
HETATM    7  C   UNK     0     149.470 146.440 142.709  0.00  0.00     0.080 A 
HETATM    8  C   UNK     0     148.335 147.456 142.482  0.00  0.00     0.001 A 
HETATM    9  C   UNK     0     150.248 148.331 144.289  0.00  0.00     0.067 A 
HETATM   10  C   UNK     0     152.845 146.728 145.204  0.00  0.00     0.052 A 
HETATM   11  C   UNK     0     150.319 143.922 141.910  0.00  0.00     0.146 A 
HETATM   12  C   UNK     0     151.253 148.992 145.349  0.00  0.00     0.114 A 
HETATM   13  C   UNK     0     151.623 143.731 142.707  0.00  0.00     0.232 A 
HETATM   14  C   UNK     0     152.561 148.185 145.809  0.00  0.00     0.058 A 
HETATM   15  C   UNK     0     148.344 148.802 143.230  0.00  0.00     0.022 A 
HETATM   16  C   UNK     0     147.189 147.125 141.507  0.00  0.00     0.028 A 
HETATM   17  C   UNK     0     147.209 149.817 143.004  0.00  0.00     0.037 A 
HETATM   18  C   UNK     0     146.053 148.141 141.281  0.00  0.00     0.005 A 
HETATM   19  C   UNK     0     146.064 149.487 142.029  0.00  0.00     0.006 A 
ENDROOT
BRANCH  12  20
HETATM   20  N   UNK     0     150.965 150.393 145.921  0.00  0.00    -0.117 N 
HETATM   21  O   UNK     0     150.090 150.546 147.179  0.00  0.00    -0.532 OA
HETATM   22  O   UNK     0     151.553 151.640 145.235  0.00  0.00    -0.532 OA
ENDBRANCH  12  20
TORSDOF 1
ENDMDL
MODEL 2
REMARK VINA RESULT:      -7.5      9.750     11.720
REMARK  1 active torsions:
REMARK  status: ('A' for Active; 'I' for Inactive)
REMARK    1  A    between atoms: N_7  and  C_15 
ROOT
HETATM    1 Cl   UNK     0     148.877 158.190 150.343  0.00  0.00    -0.143 Cl
HETATM    2  O   UNK     0     153.494 152.491 152.003  0.00  0.00    -0.168 OA
HETATM    3  N   UNK     0     152.772 154.993 151.877  0.00  0.00    -0.223 NA
HETATM    4  N   UNK     0     149.905 153.689 150.444  0.00  0.00    -0.240 NA
HETATM    5  C   UNK     0     150.531 156.345 150.954  0.00  0.00     0.042 A 
HETATM    6  C   UNK     0     151.930 156.251 151.592  0.00  0.00     0.064 A 
HETATM    7  C   UNK     0     149.630 155.205 150.443  0.00  0.00     0.080 A 
HETATM    8  C   UNK     0     148.275 155.638 149.853  0.00  0.00     0.001 A 
HETATM    9  C   UNK     0     149.817 157.766 150.742  0.00  0.00     0.067 A 
HETATM   10  C   UNK     0     152.710 157.570 152.063  0.00  0.00     0.052 A 
HETATM   11  C   UNK     0     151.149 152.939 150.956  0.00  0.00     0.146 A 
HETATM   12  C   UNK     0     150.569 159.105 151.201  0.00  0.00     0.114 A 
HETATM   13  C   UNK     0     152.425 153.520 151.594  0.00  0.00     0.232 A 
HETATM   14  C   UNK     0     152.025 159.007 151.865  0.00  0.00     0.058 A 
HETATM   15  C   UNK     0     147.898 157.130 149.803  0.00  0.00     0.022 A 
HETATM   16  C   UNK     0     147.297 154.578 149.313  0.00  0.00     0.028 A 
HETATM   17  C   UNK     0     146.543 157.563 149.212  0.00  0.00     0.037 A 
HETATM   18  C   UNK     0     145.941 155.012 148.722  0.00  0.00     0.005 A 
HETATM   19  C   UNK     0     145.566 156.504 148.673  0.00  0.00     0.006 A 
ENDROOT
BRANCH  12  20
HETATM   20  N   UNK     0     149.897 160.478 151.004  0.00  0.00    -0.117 N 
HETATM   21  O   UNK     0     148.931 161.022 152.073  0.00  0.00    -0.532 OA
HETATM   22  O   UNK     0     150.192 161.305 149.739  0.00  0.00    -0.532 OA
ENDBRANCH  12  20
TORSDOF 1
ENDMDL
MODEL 3
REMARK VINA RESULT:      -7.4     36.951     39.676
REMARK  1 active torsions:
REMARK  status: ('A' for Active; 'I' for Inactive)
REMARK    1  A    between atoms: N_7  and  C_15 
ROOT
HETATM    1 Cl   UNK     0     143.551 181.256 161.555  0.00  0.00    -0.143 Cl
HETATM    2  O   UNK     0     148.452 182.640 167.089  0.00  0.00    -0.168 OA
HETATM    3  N   UNK     0     146.217 182.932 165.777  0.00  0.00    -0.223 NA
HETATM    4  N   UNK     0     147.588 180.545 163.681  0.00  0.00    -0.240 NA
HETATM    5  C   UNK     0     145.128 181.814 163.483  0.00  0.00     0.042 A 
HETATM    6  C   UNK     0     145.124 182.748 164.707  0.00  0.00     0.064 A 
HETATM    7  C   UNK     0     146.223 180.834 163.026  0.00  0.00     0.080 A 
HETATM    8  C   UNK     0     145.915 180.037 161.745  0.00  0.00     0.001 A 
HETATM    9  C   UNK     0     143.878 181.770 162.477  0.00  0.00     0.067 A 
HETATM   10  C   UNK     0     143.872 183.703 165.011  0.00  0.00     0.052 A 
HETATM   11  C   UNK     0     148.192 181.165 164.954  0.00  0.00     0.146 A 
HETATM   12  C   UNK     0     142.609 182.711 162.752  0.00  0.00     0.114 A 
HETATM   13  C   UNK     0     147.582 182.227 165.887  0.00  0.00     0.232 A 
HETATM   14  C   UNK     0     142.606 183.684 164.027  0.00  0.00     0.058 A 
HETATM   15  C   UNK     0     144.579 180.248 161.009  0.00  0.00     0.022 A 
HETATM   16  C   UNK     0     146.944 179.028 161.199  0.00  0.00     0.028 A 
HETATM   17  C   UNK     0     144.271 179.450 159.728  0.00  0.00     0.037 A 
HETATM   18  C   UNK     0     146.635 178.231 159.918  0.00  0.00     0.005 A 
HETATM   19  C   UNK     0     145.299 178.442 159.183  0.00  0.00     0.006 A 
ENDROOT
BRANCH  12  20
HETATM   20  N   UNK     0     141.401 182.681 161.796  0.00  0.00    -0.117 N 
HETATM   21  O   UNK     0     140.233 181.713 162.062  0.00  0.00    -0.532 OA
HETATM   22  O   UNK     0     141.362 183.620 160.576  0.00  0.00    -0.532 OA
ENDBRANCH  12  20
TORSDOF 1
ENDMDL
MODEL 4
REMARK VINA RESULT:      -7.3      2.112      2.671
REMARK  1 active torsions:
REMARK  status: ('A' for Active; 'I' for Inactive)
REMARK    1  A    between atoms: N_7  and  C_15 
ROOT
HETATM    1 Cl   UNK     0     147.712 147.514 142.594  0.00  0.00    -0.143 Cl
HETATM    2  O   UNK     0     153.022 142.218 143.145  0.00  0.00    -0.168 OA
HETATM    3  N   UNK     0     151.942 144.546 143.610  0.00  0.00    -0.223 NA
HETATM    4  N   UNK     0     149.393 143.328 141.612  0.00  0.00    -0.240 NA
HETATM    5  C   UNK     0     149.583 145.800 142.858  0.00  0.00     0.042 A 
HETATM    6  C   UNK     0     150.940 145.715 143.584  0.00  0.00     0.064 A 
HETATM    7  C   UNK     0     148.895 144.738 141.981  0.00  0.00     0.080 A 
HETATM    8  C   UNK     0     147.529 145.139 141.396  0.00  0.00     0.001 A 
HETATM    9  C   UNK     0     148.679 147.121 142.958  0.00  0.00     0.067 A 
HETATM   10  C   UNK     0     151.485 146.944 144.458  0.00  0.00     0.052 A 
HETATM   11  C   UNK     0     150.702 142.632 142.029  0.00  0.00     0.146 A 
HETATM   12  C   UNK     0     149.193 148.369 143.823  0.00  0.00     0.114 A 
HETATM   13  C   UNK     0     151.837 143.174 142.918  0.00  0.00     0.232 A 
HETATM   14  C   UNK     0     150.606 148.280 144.578  0.00  0.00     0.058 A 
HETATM   15  C   UNK     0     146.936 146.527 141.702  0.00  0.00     0.022 A 
HETATM   16  C   UNK     0     146.754 144.150 140.504  0.00  0.00     0.028 A 
HETATM   17  C   UNK     0     145.570 146.927 141.116  0.00  0.00     0.037 A 
HETATM   18  C   UNK     0     145.386 144.552 139.918  0.00  0.00     0.005 A 
HETATM   19  C   UNK     0     144.795 145.940 140.225  0.00  0.00     0.006 A 
ENDROOT
BRANCH  12  20
HETATM   20  N   UNK     0     148.337 149.645 143.929  0.00  0.00    -0.117 N 
HETATM   21  O   UNK     0     147.108 149.673 144.856  0.00  0.00    -0.532 OA
HETATM   22  O   UNK     0     148.710 150.893 143.107  0.00  0.00    -0.532 OA
ENDBRANCH  12  20
TORSDOF 1
ENDMDL
MODEL 5
REMARK VINA RESULT:      -7.3     18.075     19.216
REMARK  1 active torsions:
REMARK  status: ('A' for Active; 'I' for Inactive)
REMARK    1  A    between atoms: N_7  and  C_15 
ROOT
HETATM    1 Cl   UNK     0     140.104 134.523 153.037  0.00  0.00    -0.143 Cl
HETATM    2  O   UNK     0     147.119 133.045 155.309  0.00  0.00    -0.168 OA
HETATM    3  N   UNK     0     145.268 134.398 154.067  0.00  0.00    -0.223 NA
HETATM    4  N   UNK     0     143.177 131.943 155.321  0.00  0.00    -0.240 NA
HETATM    5  C   UNK     0     142.525 134.130 153.742  0.00  0.00     0.042 A 
HETATM    6  C   UNK     0     143.886 134.819 153.532  0.00  0.00     0.064 A 
HETATM    7  C   UNK     0     142.209 132.850 154.538  0.00  0.00     0.080 A 
HETATM    8  C   UNK     0     140.731 132.421 154.554  0.00  0.00     0.001 A 
HETATM    9  C   UNK     0     141.187 134.735 153.094  0.00  0.00     0.067 A 
HETATM   10  C   UNK     0     144.004 136.160 152.660  0.00  0.00     0.052 A 
HETATM   11  C   UNK     0     144.699 132.091 155.501  0.00  0.00     0.146 A 
HETATM   12  C   UNK     0     141.269 136.073 152.216  0.00  0.00     0.114 A 
HETATM   13  C   UNK     0     145.630 133.184 154.943  0.00  0.00     0.232 A 
HETATM   14  C   UNK     0     142.687 136.791 151.997  0.00  0.00     0.058 A 
HETATM   15  C   UNK     0     139.677 133.257 153.803  0.00  0.00     0.022 A 
HETATM   16  C   UNK     0     140.305 131.154 155.321  0.00  0.00     0.028 A 
HETATM   17  C   UNK     0     138.199 132.827 153.819  0.00  0.00     0.037 A 
HETATM   18  C   UNK     0     138.825 130.725 155.336  0.00  0.00     0.005 A 
HETATM   19  C   UNK     0     137.773 131.561 154.585  0.00  0.00     0.006 A 
ENDROOT
BRANCH  12  20
HETATM   20  N   UNK     0     139.995 136.667 151.586  0.00  0.00    -0.117 N 
HETATM   21  O   UNK     0     139.590 136.276 150.153  0.00  0.00    -0.532 OA
HETATM   22  O   UNK     0     139.126 137.651 152.391  0.00  0.00    -0.532 OA
ENDBRANCH  12  20
TORSDOF 1
ENDMDL
MODEL 6
REMARK VINA RESULT:      -7.1     26.843     29.183
REMARK  1 active torsions:
REMARK  status: ('A' for Active; 'I' for Inactive)
REMARK    1  A    between atoms: N_7  and  C_15 
ROOT
HETATM    1 Cl   UNK     0     143.402 166.364 122.102  0.00  0.00    -0.143 Cl
HETATM    2  O   UNK     0     139.082 166.804 128.241  0.00  0.00    -0.168 OA
HETATM    3  N   UNK     0     141.326 166.548 126.939  0.00  0.00    -0.223 NA
HETATM    4  N   UNK     0     139.293 166.837 124.154  0.00  0.00    -0.240 NA
HETATM    5  C   UNK     0     142.046 166.499 124.259  0.00  0.00     0.042 A 
HETATM    6  C   UNK     0     142.327 166.442 125.773  0.00  0.00     0.064 A 
HETATM    7  C   UNK     0     140.696 166.674 123.539  0.00  0.00     0.080 A 
HETATM    8  C   UNK     0     140.757 166.689 122.001  0.00  0.00     0.001 A 
HETATM    9  C   UNK     0     143.239 166.368 123.195  0.00  0.00     0.067 A 
HETATM   10  C   UNK     0     143.820 166.252 126.326  0.00  0.00     0.052 A 
HETATM   11  C   UNK     0     138.894 166.864 125.641  0.00  0.00     0.146 A 
HETATM   12  C   UNK     0     144.744 166.176 123.714  0.00  0.00     0.114 A 
HETATM   13  C   UNK     0     139.799 166.736 126.881  0.00  0.00     0.232 A 
HETATM   14  C   UNK     0     145.037 166.118 125.290  0.00  0.00     0.058 A 
HETATM   15  C   UNK     0     142.110 166.533 121.281  0.00  0.00     0.022 A 
HETATM   16  C   UNK     0     139.464 166.859 121.181  0.00  0.00     0.028 A 
HETATM   17  C   UNK     0     142.170 166.548 119.743  0.00  0.00     0.037 A 
HETATM   18  C   UNK     0     139.525 166.873 119.641  0.00  0.00     0.005 A 
HETATM   19  C   UNK     0     140.878 166.718 118.923  0.00  0.00     0.006 A 
ENDROOT
BRANCH  12  20
HETATM   20  N   UNK     0     145.902 166.049 122.705  0.00  0.00    -0.117 N 
HETATM   21  O   UNK     0     146.324 164.661 122.189  0.00  0.00    -0.532 OA
HETATM   22  O   UNK     0     146.636 167.310 122.214  0.00  0.00    -0.532 OA
ENDBRANCH  12  20
TORSDOF 1
ENDMDL
MODEL 7
REMARK VINA RESULT:      -7.0     55.239     57.554
REMARK  1 active torsions:
REMARK  status: ('A' for Active; 'I' for Inactive)
REMARK    1  A    between atoms: N_7  and  C_15 
ROOT
HETATM    1 Cl   UNK     0     169.439 136.978 195.751  0.00  0.00    -0.143 Cl
HETATM    2  O   UNK     0     167.758 143.141 199.719  0.00  0.00    -0.168 OA
HETATM    3  N   UNK     0     168.802 141.817 197.730  0.00  0.00    -0.223 NA
HETATM    4  N   UNK     0     167.498 139.070 199.380  0.00  0.00    -0.240 NA
HETATM    5  C   UNK     0     168.932 139.141 197.005  0.00  0.00     0.042 A 
HETATM    6  C   UNK     0     169.215 140.644 196.820  0.00  0.00     0.064 A 
HETATM    7  C   UNK     0     168.168 138.441 198.144  0.00  0.00     0.080 A 
HETATM    8  C   UNK     0     168.060 136.909 198.033  0.00  0.00     0.001 A 
HETATM    9  C   UNK     0     169.454 138.068 195.933  0.00  0.00     0.067 A 
HETATM   10  C   UNK     0     170.038 141.177 195.551  0.00  0.00     0.052 A 
HETATM   11  C   UNK     0     167.426 140.555 199.782  0.00  0.00     0.146 A 
HETATM   12  C   UNK     0     170.280 138.566 194.653  0.00  0.00     0.114 A 
HETATM   13  C   UNK     0     168.006 141.778 199.047  0.00  0.00     0.232 A 
HETATM   14  C   UNK     0     170.574 140.131 194.460  0.00  0.00     0.058 A 
HETATM   15  C   UNK     0     168.696 136.177 196.836  0.00  0.00     0.022 A 
HETATM   16  C   UNK     0     167.317 136.108 199.119  0.00  0.00     0.028 A 
HETATM   17  C   UNK     0     168.587 134.644 196.725  0.00  0.00     0.037 A 
HETATM   18  C   UNK     0     167.209 134.576 199.007  0.00  0.00     0.005 A 
HETATM   19  C   UNK     0     167.844 133.845 197.811  0.00  0.00     0.006 A 
ENDROOT
BRANCH  12  20
HETATM   20  N   UNK     0     170.788 137.548 193.614  0.00  0.00    -0.117 N 
HETATM   21  O   UNK     0     169.909 137.179 192.404  0.00  0.00    -0.532 OA
HETATM   22  O   UNK     0     172.174 136.900 193.785  0.00  0.00    -0.532 OA
ENDBRANCH  12  20
TORSDOF 1
ENDMDL
MODEL 8
REMARK VINA RESULT:      -6.9     69.941     72.012
REMARK  1 active torsions:
REMARK  status: ('A' for Active; 'I' for Inactive)
REMARK    1  A    between atoms: N_7  and  C_15 
ROOT
HETATM    1 Cl   UNK     0     107.898 200.448 118.906  0.00  0.00    -0.143 Cl
HETATM    2  O   UNK     0     103.106 196.308 122.960  0.00  0.00    -0.168 OA
HETATM    3  N   UNK     0     104.985 196.706 121.197  0.00  0.00    -0.223 NA
HETATM    4  N   UNK     0     104.565 200.027 122.073  0.00  0.00    -0.240 NA
HETATM    5  C   UNK     0     106.319 198.935 120.220  0.00  0.00     0.042 A 
HETATM    6  C   UNK     0     106.012 197.428 120.305  0.00  0.00     0.064 A 
HETATM    7  C   UNK     0     105.676 200.091 121.007  0.00  0.00     0.080 A 
HETATM    8  C   UNK     0     106.213 201.498 120.686  0.00  0.00     0.001 A 
HETATM    9  C   UNK     0     107.439 199.492 119.215  0.00  0.00     0.067 A 
HETATM   10  C   UNK     0     106.803 196.374 119.390  0.00  0.00     0.052 A 
HETATM   11  C   UNK     0     103.825 198.791 122.615  0.00  0.00     0.146 A 
HETATM   12  C   UNK     0     108.249 198.466 118.286  0.00  0.00     0.114 A 
HETATM   13  C   UNK     0     104.012 197.312 122.225  0.00  0.00     0.232 A 
HETATM   14  C   UNK     0     107.929 196.897 118.374  0.00  0.00     0.058 A 
HETATM   15  C   UNK     0     107.325 201.677 119.635  0.00  0.00     0.022 A 
HETATM   16  C   UNK     0     105.639 202.727 121.416  0.00  0.00     0.028 A 
HETATM   17  C   UNK     0     107.862 203.084 119.314  0.00  0.00     0.037 A 
HETATM   18  C   UNK     0     106.176 204.135 121.095  0.00  0.00     0.005 A 
HETATM   19  C   UNK     0     107.287 204.312 120.044  0.00  0.00     0.006 A 
ENDROOT
BRANCH  12  20
HETATM   20  N   UNK     0     109.327 198.984 117.316  0.00  0.00    -0.117 N 
HETATM   21  O   UNK     0     108.946 199.364 115.873  0.00  0.00    -0.532 OA
HETATM   22  O   UNK     0     110.786 199.123 117.789  0.00  0.00    -0.532 OA
ENDBRANCH  12  20
TORSDOF 1
ENDMDL
MODEL 9
REMARK VINA RESULT:      -6.9     17.016     18.518
REMARK  1 active torsions:
REMARK  status: ('A' for Active; 'I' for Inactive)
REMARK    1  A    between atoms: N_7  and  C_15 
ROOT
HETATM    1 Cl   UNK     0     164.080 159.707 139.462  0.00  0.00    -0.143 Cl
HETATM    2  O   UNK     0     161.193 155.597 133.865  0.00  0.00    -0.168 OA
HETATM    3  N   UNK     0     163.101 156.767 135.203  0.00  0.00    -0.223 NA
HETATM    4  N   UNK     0     160.515 157.736 137.289  0.00  0.00    -0.240 NA
HETATM    5  C   UNK     0     163.223 158.299 137.514  0.00  0.00     0.042 A 
HETATM    6  C   UNK     0     163.825 157.588 136.287  0.00  0.00     0.064 A 
HETATM    7  C   UNK     0     161.751 158.365 137.959  0.00  0.00     0.080 A 
HETATM    8  C   UNK     0     161.478 159.166 139.246  0.00  0.00     0.001 A 
HETATM    9  C   UNK     0     164.158 159.112 138.534  0.00  0.00     0.067 A 
HETATM   10  C   UNK     0     165.401 157.640 135.996  0.00  0.00     0.052 A 
HETATM   11  C   UNK     0     160.447 156.885 136.007  0.00  0.00     0.146 A 
HETATM   12  C   UNK     0     165.738 159.184 138.273  0.00  0.00     0.114 A 
HETATM   13  C   UNK     0     161.598 156.454 135.078  0.00  0.00     0.232 A 
HETATM   14  C   UNK     0     166.364 158.443 136.995  0.00  0.00     0.058 A 
HETATM   15  C   UNK     0     162.642 159.837 139.998  0.00  0.00     0.022 A 
HETATM   16  C   UNK     0     160.039 159.295 139.781  0.00  0.00     0.028 A 
HETATM   17  C   UNK     0     162.368 160.638 141.284  0.00  0.00     0.037 A 
HETATM   18  C   UNK     0     159.766 160.096 141.069  0.00  0.00     0.005 A 
HETATM   19  C   UNK     0     160.930 160.767 141.819  0.00  0.00     0.006 A 
ENDROOT
BRANCH  12  20
HETATM   20  N   UNK     0     166.649 159.960 139.243  0.00  0.00    -0.117 N 
HETATM   21  O   UNK     0     166.905 161.462 139.024  0.00  0.00    -0.532 OA
HETATM   22  O   UNK     0     167.304 159.232 140.432  0.00  0.00    -0.532 OA
ENDBRANCH  12  20
TORSDOF 1
ENDMDL
MODEL 10
REMARK VINA RESULT:      -6.9     23.780     26.152
REMARK  1 active torsions:
REMARK  status: ('A' for Active; 'I' for Inactive)
REMARK    1  A    between atoms: N_7  and  C_15 
ROOT
HETATM    1 Cl   UNK     0     147.390 145.877 118.975  0.00  0.00    -0.143 Cl
HETATM    2  O   UNK     0     140.815 143.909 115.902  0.00  0.00    -0.168 OA
HETATM    3  N   UNK     0     143.350 144.518 115.881  0.00  0.00    -0.223 NA
HETATM    4  N   UNK     0     142.904 144.835 119.298  0.00  0.00    -0.240 NA
HETATM    5  C   UNK     0     145.219 145.209 117.813  0.00  0.00     0.042 A 
HETATM    6  C   UNK     0     144.754 144.918 116.374  0.00  0.00     0.064 A 
HETATM    7  C   UNK     0     144.396 145.172 119.114  0.00  0.00     0.080 A 
HETATM    8  C   UNK     0     145.166 145.518 120.402  0.00  0.00     0.001 A 
HETATM    9  C   UNK     0     146.741 145.614 118.120  0.00  0.00     0.067 A 
HETATM   10  C   UNK     0     145.778 145.012 115.143  0.00  0.00     0.052 A 
HETATM   11  C   UNK     0     141.867 144.452 118.225  0.00  0.00     0.146 A 
HETATM   12  C   UNK     0     147.791 145.717 116.913  0.00  0.00     0.114 A 
HETATM   13  C   UNK     0     142.066 144.311 116.705  0.00  0.00     0.232 A 
HETATM   14  C   UNK     0     147.306 145.414 115.415  0.00  0.00     0.058 A 
HETATM   15  C   UNK     0     146.664 145.871 120.333  0.00  0.00     0.022 A 
HETATM   16  C   UNK     0     144.438 145.511 121.760  0.00  0.00     0.028 A 
HETATM   17  C   UNK     0     147.433 146.217 121.621  0.00  0.00     0.037 A 
HETATM   18  C   UNK     0     145.209 145.858 123.048  0.00  0.00     0.005 A 
HETATM   19  C   UNK     0     146.706 146.210 122.978  0.00  0.00     0.006 A 
ENDROOT
BRANCH  12  20
HETATM   20  N   UNK     0     149.256 146.105 117.191  0.00  0.00    -0.117 N 
HETATM   21  O   UNK     0     150.281 145.020 117.567  0.00  0.00    -0.532 OA
HETATM   22  O   UNK     0     149.693 147.578 117.093  0.00  0.00    -0.532 OA
ENDBRANCH  12  20
TORSDOF 1
ENDMDL
