MODEL 1
REMARK VINA RESULT:      -7.0      0.000      0.000
REMARK  1 active torsions:
REMARK  status: ('A' for Active; 'I' for Inactive)
REMARK    1  A    between atoms: C_7  and  C_10 
ROOT
HETATM    1 Cl   UNK     0     162.420 156.240 131.030  0.00  0.00    -0.091 Cl
HETATM    2  O   UNK     0     160.796 158.681 139.345  0.00  0.00    -0.169 OA
HETATM    3  N   UNK     0     161.092 157.611 136.985  0.00  0.00    -0.307 N 
HETATM    4  N   UNK     0     162.640 160.616 136.244  0.00  0.00    -0.241 NA
HETATM    5  C   UNK     0     162.224 158.430 134.587  0.00  0.00     0.011 A 
HETATM    6  C   UNK     0     161.493 157.436 135.508  0.00  0.00     0.037 A 
HETATM    7  C   UNK     0     162.734 159.845 134.915  0.00  0.00     0.071 A 
HETATM    8  C   UNK     0     162.012 160.161 137.575  0.00  0.00     0.144 A 
HETATM    9  C   UNK     0     161.323 158.824 137.904  0.00  0.00     0.214 A 
HETATM   10  C   UNK     0     162.552 158.052 133.063  0.00  0.00     0.062 A 
HETATM   11  C   UNK     0     161.040 155.995 134.970  0.00  0.00     0.049 A 
HETATM   12  C   UNK     0     160.364 156.416 137.626  0.00  0.00     0.132 C 
HETATM   13  C   UNK     0     162.113 156.619 132.491  0.00  0.00     0.018 A 
HETATM   14  C   UNK     0     161.352 155.583 133.451  0.00  0.00     0.040 A 
ENDROOT
BRANCH   7  15
HETATM   15  C   UNK     0     163.431 160.588 133.760  0.00  0.00    -0.027 A 
HETATM   16  C   UNK     0     162.592 161.330 132.704  0.00  0.00     0.024 A 
HETATM   17  C   UNK     0     163.289 162.073 131.549  0.00  0.00     0.004 A 
HETATM   18  C   UNK     0     164.825 162.074 131.450  0.00  0.00     0.001 A 
HETATM   19  C   UNK     0     165.665 161.332 132.507  0.00  0.00     0.004 A 
HETATM   20  C   UNK     0     164.968 160.589 133.661  0.00  0.00     0.024 A 
ENDBRANCH   7  15
TORSDOF 1
ENDMDL
MODEL 2
REMARK VINA RESULT:      -6.6     34.608     37.551
REMARK  1 active torsions:
REMARK  status: ('A' for Active; 'I' for Inactive)
REMARK    1  A    between atoms: C_7  and  C_10 
ROOT
HETATM    1 Cl   UNK     0     131.403 154.349 161.471  0.00  0.00    -0.091 Cl
HETATM    2  O   UNK     0     138.521 153.586 156.324  0.00  0.00    -0.169 OA
HETATM    3  N   UNK     0     136.666 153.723 158.154  0.00  0.00    -0.307 N 
HETATM    4  N   UNK     0     134.617 154.473 155.468  0.00  0.00    -0.241 NA
HETATM    5  C   UNK     0     133.946 154.265 158.152  0.00  0.00     0.011 A 
HETATM    6  C   UNK     0     135.289 153.913 158.816  0.00  0.00     0.037 A 
HETATM    7  C   UNK     0     133.646 154.514 156.662  0.00  0.00     0.071 A 
HETATM    8  C   UNK     0     136.128 154.172 155.469  0.00  0.00     0.144 A 
HETATM    9  C   UNK     0     137.040 153.838 156.664  0.00  0.00     0.214 A 
HETATM   10  C   UNK     0     132.610 154.420 159.028  0.00  0.00     0.062 A 
HETATM   11  C   UNK     0     135.392 153.690 160.401  0.00  0.00     0.049 A 
HETATM   12  C   UNK     0     137.824 153.371 159.107  0.00  0.00     0.132 C 
HETATM   13  C   UNK     0     132.675 154.204 160.616  0.00  0.00     0.018 A 
HETATM   14  C   UNK     0     134.076 153.837 161.308  0.00  0.00     0.040 A 
ENDROOT
BRANCH   7  15
HETATM   15  C   UNK     0     132.182 154.850 156.321  0.00  0.00    -0.027 A 
HETATM   16  C   UNK     0     131.773 156.305 156.030  0.00  0.00     0.024 A 
HETATM   17  C   UNK     0     130.309 156.640 155.689  0.00  0.00     0.004 A 
HETATM   18  C   UNK     0     129.255 155.520 155.640  0.00  0.00     0.001 A 
HETATM   19  C   UNK     0     129.664 154.063 155.931  0.00  0.00     0.004 A 
HETATM   20  C   UNK     0     131.128 153.728 156.272  0.00  0.00     0.024 A 
ENDBRANCH   7  15
TORSDOF 1
ENDMDL
MODEL 3
REMARK VINA RESULT:      -6.4     38.409     40.952
REMARK  1 active torsions:
REMARK  status: ('A' for Active; 'I' for Inactive)
REMARK    1  A    between atoms: C_7  and  C_10 
ROOT
HETATM    1 Cl   UNK     0     143.731 180.133 158.058  0.00  0.00    -0.091 Cl
HETATM    2  O   UNK     0     145.800 182.654 166.249  0.00  0.00    -0.169 OA
HETATM    3  N   UNK     0     145.532 181.691 163.840  0.00  0.00    -0.307 N 
HETATM    4  N   UNK     0     142.629 183.576 163.830  0.00  0.00    -0.241 NA
HETATM    5  C   UNK     0     143.651 181.961 161.818  0.00  0.00     0.011 A 
HETATM    6  C   UNK     0     144.947 181.412 162.443  0.00  0.00     0.037 A 
HETATM    7  C   UNK     0     142.619 182.923 162.435  0.00  0.00     0.071 A 
HETATM    8  C   UNK     0     143.673 183.426 164.952  0.00  0.00     0.144 A 
HETATM    9  C   UNK     0     144.965 182.587 164.956  0.00  0.00     0.214 A 
HETATM   10  C   UNK     0     143.213 181.544 160.331  0.00  0.00     0.062 A 
HETATM   11  C   UNK     0     145.895 180.410 161.626  0.00  0.00     0.049 A 
HETATM   12  C   UNK     0     146.859 180.980 164.163  0.00  0.00     0.132 C 
HETATM   13  C   UNK     0     144.137 180.543 159.485  0.00  0.00     0.018 A 
HETATM   14  C   UNK     0     145.488 179.971 160.137  0.00  0.00     0.040 A 
ENDROOT
BRANCH   7  15
HETATM   15  C   UNK     0     141.419 183.281 161.539  0.00  0.00    -0.027 A 
HETATM   16  C   UNK     0     140.126 182.449 161.615  0.00  0.00     0.024 A 
HETATM   17  C   UNK     0     138.926 182.807 160.718  0.00  0.00     0.004 A 
HETATM   18  C   UNK     0     139.019 183.997 159.747  0.00  0.00     0.001 A 
HETATM   19  C   UNK     0     140.312 184.830 159.671  0.00  0.00     0.004 A 
HETATM   20  C   UNK     0     141.512 184.472 160.567  0.00  0.00     0.024 A 
ENDBRANCH   7  15
TORSDOF 1
ENDMDL
MODEL 4
REMARK VINA RESULT:      -6.3     34.856     37.078
REMARK  1 active torsions:
REMARK  status: ('A' for Active; 'I' for Inactive)
REMARK    1  A    between atoms: C_7  and  C_10 
ROOT
HETATM    1 Cl   UNK     0     130.182 152.867 156.465  0.00  0.00    -0.091 Cl
HETATM    2  O   UNK     0     132.547 161.348 156.006  0.00  0.00    -0.169 OA
HETATM    3  N   UNK     0     131.466 158.976 156.107  0.00  0.00    -0.307 N 
HETATM    4  N   UNK     0     134.749 157.919 156.394  0.00  0.00    -0.241 NA
HETATM    5  C   UNK     0     132.435 156.388 156.356  0.00  0.00     0.011 A 
HETATM    6  C   UNK     0     131.326 157.446 156.208  0.00  0.00     0.037 A 
HETATM    7  C   UNK     0     133.959 156.598 156.439  0.00  0.00     0.071 A 
HETATM    8  C   UNK     0     134.211 159.356 156.256  0.00  0.00     0.144 A 
HETATM    9  C   UNK     0     132.750 159.826 156.128  0.00  0.00     0.214 A 
HETATM   10  C   UNK     0     132.077 154.826 156.445  0.00  0.00     0.062 A 
HETATM   11  C   UNK     0     129.782 157.017 156.140  0.00  0.00     0.049 A 
HETATM   12  C   UNK     0     130.149 159.760 155.966  0.00  0.00     0.132 C 
HETATM   13  C   UNK     0     130.543 154.361 156.380  0.00  0.00     0.018 A 
HETATM   14  C   UNK     0     129.388 155.464 156.226  0.00  0.00     0.040 A 
ENDROOT
BRANCH   7  15
HETATM   15  C   UNK     0     134.803 155.319 156.585  0.00  0.00    -0.027 A 
HETATM   16  C   UNK     0     135.259 154.853 157.979  0.00  0.00     0.024 A 
HETATM   17  C   UNK     0     136.104 153.573 158.126  0.00  0.00     0.004 A 
HETATM   18  C   UNK     0     136.492 152.760 156.878  0.00  0.00     0.001 A 
HETATM   19  C   UNK     0     136.036 153.227 155.482  0.00  0.00     0.004 A 
HETATM   20  C   UNK     0     135.191 154.506 155.336  0.00  0.00     0.024 A 
ENDBRANCH   7  15
TORSDOF 1
ENDMDL
MODEL 5
REMARK VINA RESULT:      -6.2     36.315     38.935
REMARK  1 active torsions:
REMARK  status: ('A' for Active; 'I' for Inactive)
REMARK    1  A    between atoms: C_7  and  C_10 
ROOT
HETATM    1 Cl   UNK     0     144.570 178.411 157.878  0.00  0.00    -0.091 Cl
HETATM    2  O   UNK     0     148.848 180.571 165.278  0.00  0.00    -0.169 OA
HETATM    3  N   UNK     0     147.896 179.682 163.019  0.00  0.00    -0.307 N 
HETATM    4  N   UNK     0     145.281 181.839 163.721  0.00  0.00    -0.241 NA
HETATM    5  C   UNK     0     145.607 180.169 161.528  0.00  0.00     0.011 A 
HETATM    6  C   UNK     0     146.957 179.487 161.814  0.00  0.00     0.037 A 
HETATM    7  C   UNK     0     144.861 181.216 162.377  0.00  0.00     0.071 A 
HETATM    8  C   UNK     0     146.552 181.568 164.548  0.00  0.00     0.144 A 
HETATM    9  C   UNK     0     147.716 180.609 164.236  0.00  0.00     0.214 A 
HETATM   10  C   UNK     0     144.774 179.824 160.201  0.00  0.00     0.062 A 
HETATM   11  C   UNK     0     147.569 178.412 160.792  0.00  0.00     0.049 A 
HETATM   12  C   UNK     0     149.185 178.841 163.005  0.00  0.00     0.132 C 
HETATM   13  C   UNK     0     145.356 178.754 159.157  0.00  0.00     0.018 A 
HETATM   14  C   UNK     0     146.763 178.043 159.455  0.00  0.00     0.040 A 
ENDROOT
BRANCH   7  15
HETATM   15  C   UNK     0     143.517 181.705 161.806  0.00  0.00    -0.027 A 
HETATM   16  C   UNK     0     143.426 183.079 161.118  0.00  0.00     0.024 A 
HETATM   17  C   UNK     0     142.082 183.567 160.547  0.00  0.00     0.004 A 
HETATM   18  C   UNK     0     140.829 182.682 160.664  0.00  0.00     0.001 A 
HETATM   19  C   UNK     0     140.919 181.307 161.353  0.00  0.00     0.004 A 
HETATM   20  C   UNK     0     142.263 180.818 161.923  0.00  0.00     0.024 A 
ENDBRANCH   7  15
TORSDOF 1
ENDMDL
MODEL 6
REMARK VINA RESULT:      -6.1     17.855     20.021
REMARK  1 active torsions:
REMARK  status: ('A' for Active; 'I' for Inactive)
REMARK    1  A    between atoms: C_7  and  C_10 
ROOT
HETATM    1 Cl   UNK     0     157.624 177.321 144.655  0.00  0.00    -0.091 Cl
HETATM    2  O   UNK     0     165.800 175.375 147.320  0.00  0.00    -0.169 OA
HETATM    3  N   UNK     0     163.321 176.078 146.913  0.00  0.00    -0.307 N 
HETATM    4  N   UNK     0     163.942 174.968 143.694  0.00  0.00    -0.241 NA
HETATM    5  C   UNK     0     161.601 176.033 144.736  0.00  0.00     0.011 A 
HETATM    6  C   UNK     0     161.977 176.321 146.201  0.00  0.00     0.037 A 
HETATM    7  C   UNK     0     162.476 175.431 143.620  0.00  0.00     0.071 A 
HETATM    8  C   UNK     0     164.897 174.994 144.903  0.00  0.00     0.144 A 
HETATM    9  C   UNK     0     164.620 175.487 146.335  0.00  0.00     0.214 A 
HETATM   10  C   UNK     0     160.131 176.362 144.183  0.00  0.00     0.062 A 
HETATM   11  C   UNK     0     160.910 176.957 147.215  0.00  0.00     0.049 A 
HETATM   12  C   UNK     0     163.372 176.479 148.398  0.00  0.00     0.132 C 
HETATM   13  C   UNK     0     159.039 176.999 145.170  0.00  0.00     0.018 A 
HETATM   14  C   UNK     0     159.431 177.299 146.697  0.00  0.00     0.040 A 
ENDROOT
BRANCH   7  15
HETATM   15  C   UNK     0     161.793 175.271 142.249  0.00  0.00    -0.027 A 
HETATM   16  C   UNK     0     161.826 176.426 141.232  0.00  0.00     0.024 A 
HETATM   17  C   UNK     0     161.144 176.265 139.861  0.00  0.00     0.004 A 
HETATM   18  C   UNK     0     160.428 174.950 139.507  0.00  0.00     0.001 A 
HETATM   19  C   UNK     0     160.395 173.793 140.524  0.00  0.00     0.004 A 
HETATM   20  C   UNK     0     161.077 173.954 141.895  0.00  0.00     0.024 A 
ENDBRANCH   7  15
TORSDOF 1
ENDMDL
MODEL 7
REMARK VINA RESULT:      -6.1     40.709     43.803
REMARK  1 active torsions:
REMARK  status: ('A' for Active; 'I' for Inactive)
REMARK    1  A    between atoms: C_7  and  C_10 
ROOT
HETATM    1 Cl   UNK     0     137.696 161.685 168.746  0.00  0.00    -0.091 Cl
HETATM    2  O   UNK     0     135.077 169.055 164.678  0.00  0.00    -0.169 OA
HETATM    3  N   UNK     0     135.932 166.735 165.508  0.00  0.00    -0.307 N 
HETATM    4  N   UNK     0     135.217 168.027 168.638  0.00  0.00    -0.241 NA
HETATM    5  C   UNK     0     136.239 165.530 167.988  0.00  0.00     0.011 A 
HETATM    6  C   UNK     0     136.321 165.582 166.452  0.00  0.00     0.037 A 
HETATM    7  C   UNK     0     135.748 166.619 168.962  0.00  0.00     0.071 A 
HETATM    8  C   UNK     0     135.047 168.695 167.261  0.00  0.00     0.144 A 
HETATM    9  C   UNK     0     135.365 168.120 165.868  0.00  0.00     0.214 A 
HETATM   10  C   UNK     0     136.699 164.221 168.794  0.00  0.00     0.062 A 
HETATM   11  C   UNK     0     136.868 164.329 165.614  0.00  0.00     0.049 A 
HETATM   12  C   UNK     0     136.136 166.467 164.006  0.00  0.00     0.132 C 
HETATM   13  C   UNK     0     137.251 162.949 167.988  0.00  0.00     0.018 A 
HETATM   14  C   UNK     0     137.336 163.003 166.387  0.00  0.00     0.040 A 
ENDROOT
BRANCH   7  15
HETATM   15  C   UNK     0     135.794 166.249 170.456  0.00  0.00    -0.027 A 
HETATM   16  C   UNK     0     136.906 166.817 171.356  0.00  0.00     0.024 A 
HETATM   17  C   UNK     0     136.952 166.448 172.850  0.00  0.00     0.004 A 
HETATM   18  C   UNK     0     135.885 165.511 173.444  0.00  0.00     0.001 A 
HETATM   19  C   UNK     0     134.772 164.942 172.544  0.00  0.00     0.004 A 
HETATM   20  C   UNK     0     134.726 165.311 171.050  0.00  0.00     0.024 A 
ENDBRANCH   7  15
TORSDOF 1
ENDMDL
MODEL 8
REMARK VINA RESULT:      -6.0     25.819     28.447
REMARK  1 active torsions:
REMARK  status: ('A' for Active; 'I' for Inactive)
REMARK    1  A    between atoms: C_7  and  C_10 
ROOT
HETATM    1 Cl   UNK     0     168.109 178.724 149.589  0.00  0.00    -0.091 Cl
HETATM    2  O   UNK     0     171.582 179.980 157.594  0.00  0.00    -0.169 OA
HETATM    3  N   UNK     0     170.821 179.888 155.101  0.00  0.00    -0.307 N 
HETATM    4  N   UNK     0     168.591 177.515 156.274  0.00  0.00    -0.241 NA
HETATM    5  C   UNK     0     168.913 178.458 153.684  0.00  0.00     0.011 A 
HETATM    6  C   UNK     0     170.051 179.484 153.831  0.00  0.00     0.037 A 
HETATM    7  C   UNK     0     168.263 177.582 154.771  0.00  0.00     0.071 A 
HETATM    8  C   UNK     0     169.651 178.310 157.061  0.00  0.00     0.144 A 
HETATM    9  C   UNK     0     170.644 179.366 156.539  0.00  0.00     0.214 A 
HETATM   10  C   UNK     0     168.234 178.179 152.257  0.00  0.00     0.062 A 
HETATM   11  C   UNK     0     170.590 180.303 152.561  0.00  0.00     0.049 A 
HETATM   12  C   UNK     0     171.914 180.956 154.909  0.00  0.00     0.132 C 
HETATM   13  C   UNK     0     168.749 178.979 150.966  0.00  0.00     0.018 A 
HETATM   14  C   UNK     0     169.935 180.049 151.119  0.00  0.00     0.040 A 
ENDROOT
BRANCH   7  15
HETATM   15  C   UNK     0     167.135 176.648 154.293  0.00  0.00    -0.027 A 
HETATM   16  C   UNK     0     165.687 176.890 154.755  0.00  0.00     0.024 A 
HETATM   17  C   UNK     0     164.560 175.956 154.276  0.00  0.00     0.004 A 
HETATM   18  C   UNK     0     164.881 174.781 153.335  0.00  0.00     0.001 A 
HETATM   19  C   UNK     0     166.330 174.539 152.872  0.00  0.00     0.004 A 
HETATM   20  C   UNK     0     167.457 175.473 153.351  0.00  0.00     0.024 A 
ENDBRANCH   7  15
TORSDOF 1
ENDMDL
MODEL 9
REMARK VINA RESULT:      -6.0     35.866     38.014
REMARK  1 active torsions:
REMARK  status: ('A' for Active; 'I' for Inactive)
REMARK    1  A    between atoms: C_7  and  C_10 
ROOT
HETATM    1 Cl   UNK     0     137.970 153.391 156.962  0.00  0.00    -0.091 Cl
HETATM    2  O   UNK     0     134.159 153.397 164.912  0.00  0.00    -0.169 OA
HETATM    3  N   UNK     0     135.607 153.233 162.749  0.00  0.00    -0.307 N 
HETATM    4  N   UNK     0     132.817 154.619 161.242  0.00  0.00    -0.241 NA
HETATM    5  C   UNK     0     135.228 153.886 160.079  0.00  0.00     0.011 A 
HETATM    6  C   UNK     0     136.034 153.343 161.273  0.00  0.00     0.037 A 
HETATM    7  C   UNK     0     133.796 154.454 160.065  0.00  0.00     0.071 A 
HETATM    8  C   UNK     0     133.028 154.256 162.724  0.00  0.00     0.144 A 
HETATM    9  C   UNK     0     134.270 153.639 163.394  0.00  0.00     0.214 A 
HETATM   10  C   UNK     0     135.859 153.915 158.604  0.00  0.00     0.062 A 
HETATM   11  C   UNK     0     137.526 152.791 161.076  0.00  0.00     0.049 A 
HETATM   12  C   UNK     0     136.657 152.639 163.705  0.00  0.00     0.132 C 
HETATM   13  C   UNK     0     137.349 153.370 158.371  0.00  0.00     0.018 A 
HETATM   14  C   UNK     0     138.190 152.804 159.615  0.00  0.00     0.040 A 
ENDROOT
BRANCH   7  15
HETATM   15  C   UNK     0     133.275 154.918 158.692  0.00  0.00    -0.027 A 
HETATM   16  C   UNK     0     132.504 153.938 157.790  0.00  0.00     0.024 A 
HETATM   17  C   UNK     0     131.982 154.403 156.417  0.00  0.00     0.004 A 
HETATM   18  C   UNK     0     132.232 155.847 155.947  0.00  0.00     0.001 A 
HETATM   19  C   UNK     0     133.003 156.828 156.850  0.00  0.00     0.004 A 
HETATM   20  C   UNK     0     133.525 156.364 158.223  0.00  0.00     0.024 A 
ENDBRANCH   7  15
TORSDOF 1
ENDMDL
MODEL 10
REMARK VINA RESULT:      -5.9     22.800     25.276
REMARK  1 active torsions:
REMARK  status: ('A' for Active; 'I' for Inactive)
REMARK    1  A    between atoms: C_7  and  C_10 
ROOT
HETATM    1 Cl   UNK     0     169.153 179.581 149.090  0.00  0.00    -0.091 Cl
HETATM    2  O   UNK     0     166.577 174.971 156.150  0.00  0.00    -0.169 OA
HETATM    3  N   UNK     0     167.633 176.479 154.302  0.00  0.00    -0.307 N 
HETATM    4  N   UNK     0     165.092 175.184 152.341  0.00  0.00    -0.241 NA
HETATM    5  C   UNK     0     167.067 177.003 151.637  0.00  0.00     0.011 A 
HETATM    6  C   UNK     0     167.869 177.161 152.942  0.00  0.00     0.037 A 
HETATM    7  C   UNK     0     165.832 176.123 151.369  0.00  0.00     0.071 A 
HETATM    8  C   UNK     0     165.407 174.894 153.820  0.00  0.00     0.144 A 
HETATM    9  C   UNK     0     166.537 175.470 154.693  0.00  0.00     0.214 A 
HETATM   10  C   UNK     0     167.480 177.811 150.314  0.00  0.00     0.062 A 
HETATM   11  C   UNK     0     169.138 178.138 153.015  0.00  0.00     0.049 A 
HETATM   12  C   UNK     0     168.623 176.855 155.420  0.00  0.00     0.132 C 
HETATM   13  C   UNK     0     168.744 178.797 150.351  0.00  0.00     0.018 A 
HETATM   14  C   UNK     0     169.579 178.963 151.711  0.00  0.00     0.040 A 
ENDROOT
BRANCH   7  15
HETATM   15  C   UNK     0     165.259 176.191 149.941  0.00  0.00    -0.027 A 
HETATM   16  C   UNK     0     166.030 175.553 148.772  0.00  0.00     0.024 A 
HETATM   17  C   UNK     0     165.458 175.620 147.344  0.00  0.00     0.004 A 
HETATM   18  C   UNK     0     164.115 176.326 147.085  0.00  0.00     0.001 A 
HETATM   19  C   UNK     0     163.343 176.965 148.255  0.00  0.00     0.004 A 
HETATM   20  C   UNK     0     163.915 176.897 149.683  0.00  0.00     0.024 A 
ENDBRANCH   7  15
TORSDOF 1
ENDMDL
