MODEL 1
REMARK VINA RESULT:      -8.9      0.000      0.000
REMARK  7 active torsions:
REMARK  status: ('A' for Active; 'I' for Inactive)
REMARK    1  A    between atoms: N_3  and  C_7 
REMARK    2  A    between atoms: N_4  and  C_10 
REMARK    3  A    between atoms: C_7  and  C_11 
REMARK    4  A    between atoms: C_7  and  C_12 
REMARK    5  A    between atoms: C_10  and  C_13 
REMARK    6  A    between atoms: C_13  and  C_22 
REMARK    7  A    between atoms: C_22  and  C_25 
ROOT
HETATM    1  N   UNK     0     149.406 147.308 143.502  0.00  0.00    -0.345 N 
HETATM    2  N   UNK     0     150.178 149.819 145.111  0.00  0.00    -0.365 N 
HETATM    3  C   UNK     0     150.073 148.502 142.793  0.00  0.00     0.125 A 
HETATM    4  C   UNK     0     149.126 147.370 145.015  0.00  0.00     0.125 A 
HETATM    5  C   UNK     0     150.459 149.757 143.597  0.00  0.00     0.122 A 
HETATM    6  C   UNK     0     149.512 148.625 145.819  0.00  0.00     0.122 A 
ENDROOT
BRANCH   1   7
HETATM    7  C   UNK     0     149.021 146.052 142.698  0.00  0.00     0.040 C 
BRANCH   7   8
HETATM    8  C   UNK     0     147.697 146.019 141.911  0.00  0.00    -0.029 A 
HETATM    9  C   UNK     0     146.377 145.705 142.638  0.00  0.00     0.030 A 
HETATM   10  C   UNK     0     145.054 145.671 141.851  0.00  0.00     0.056 A 
HETATM   11  C   UNK     0     145.051 145.952 140.336  0.00  0.00     0.096 A 
HETATM   12  F   UNK     0     143.728 145.919 139.549  0.00  0.00    -0.213 F 
HETATM   13  C   UNK     0     146.372 146.266 139.609  0.00  0.00     0.056 A 
HETATM   14  C   UNK     0     147.695 146.299 140.397  0.00  0.00     0.030 A 
ENDBRANCH   7   8
BRANCH   7  15
HETATM   15  C   UNK     0     149.957 144.831 142.681  0.00  0.00    -0.029 A 
HETATM   16  C   UNK     0     151.384 144.947 143.249  0.00  0.00     0.030 A 
HETATM   17  C   UNK     0     152.322 143.725 143.232  0.00  0.00     0.056 A 
HETATM   18  C   UNK     0     151.832 142.387 142.648  0.00  0.00     0.096 A 
HETATM   19  F   UNK     0     152.770 141.165 142.631  0.00  0.00    -0.213 F 
HETATM   20  C   UNK     0     150.405 142.271 142.080  0.00  0.00     0.056 A 
HETATM   21  C   UNK     0     149.468 143.493 142.097  0.00  0.00     0.030 A 
ENDBRANCH   7  15
ENDBRANCH   1   7
BRANCH   2  22
HETATM   22  C   UNK     0     150.564 151.074 145.915  0.00  0.00     0.097 C 
BRANCH  22  23
HETATM   23  C   UNK     0     151.517 150.955 147.118  0.00  0.00     0.024 C 
BRANCH  23  24
HETATM   24  C   UNK     0     153.011 150.659 146.891  0.00  0.00     0.002 C 
BRANCH  24  25
HETATM   25  C   UNK     0     153.459 149.870 145.647  0.00  0.00     0.000 A 
HETATM   26  C   UNK     0     153.969 150.620 144.402  0.00  0.00     0.000 A 
HETATM   27  C   UNK     0     154.418 149.830 143.157  0.00  0.00     0.000 A 
HETATM   28  C   UNK     0     154.356 148.291 143.158  0.00  0.00     0.000 A 
HETATM   29  C   UNK     0     153.846 147.542 144.403  0.00  0.00     0.000 A 
HETATM   30  C   UNK     0     153.397 148.331 145.647  0.00  0.00     0.000 A 
ENDBRANCH  24  25
ENDBRANCH  23  24
ENDBRANCH  22  23
ENDBRANCH   2  22
TORSDOF 7
ENDMDL
MODEL 2
REMARK VINA RESULT:      -8.7      0.637      4.722
REMARK  7 active torsions:
REMARK  status: ('A' for Active; 'I' for Inactive)
REMARK    1  A    between atoms: N_3  and  C_7 
REMARK    2  A    between atoms: N_4  and  C_10 
REMARK    3  A    between atoms: C_7  and  C_11 
REMARK    4  A    between atoms: C_7  and  C_12 
REMARK    5  A    between atoms: C_10  and  C_13 
REMARK    6  A    between atoms: C_13  and  C_22 
REMARK    7  A    between atoms: C_22  and  C_25 
ROOT
HETATM    1  N   UNK     0     149.550 147.454 143.327  0.00  0.00    -0.345 N 
HETATM    2  N   UNK     0     150.353 149.917 144.993  0.00  0.00    -0.365 N 
HETATM    3  C   UNK     0     150.265 148.640 142.653  0.00  0.00     0.125 A 
HETATM    4  C   UNK     0     149.236 147.501 144.834  0.00  0.00     0.125 A 
HETATM    5  C   UNK     0     150.667 149.871 143.486  0.00  0.00     0.122 A 
HETATM    6  C   UNK     0     149.638 148.732 145.667  0.00  0.00     0.122 A 
ENDROOT
BRANCH   1   7
HETATM    7  C   UNK     0     149.148 146.223 142.495  0.00  0.00     0.040 C 
BRANCH   7   8
HETATM    8  C   UNK     0     150.143 145.062 142.307  0.00  0.00    -0.029 A 
HETATM    9  C   UNK     0     150.036 144.149 141.072  0.00  0.00     0.030 A 
HETATM   10  C   UNK     0     151.030 142.988 140.884  0.00  0.00     0.056 A 
HETATM   11  C   UNK     0     152.132 142.741 141.931  0.00  0.00     0.096 A 
HETATM   12  F   UNK     0     153.127 141.581 141.744  0.00  0.00    -0.213 F 
HETATM   13  C   UNK     0     152.239 143.655 143.166  0.00  0.00     0.056 A 
HETATM   14  C   UNK     0     151.244 144.816 143.354  0.00  0.00     0.030 A 
ENDBRANCH   7   8
BRANCH   7  15
HETATM   15  C   UNK     0     147.752 146.152 141.850  0.00  0.00    -0.029 A 
HETATM   16  C   UNK     0     147.273 147.285 140.922  0.00  0.00     0.030 A 
HETATM   17  C   UNK     0     145.876 147.214 140.277  0.00  0.00     0.056 A 
HETATM   18  C   UNK     0     144.958 146.010 140.559  0.00  0.00     0.096 A 
HETATM   19  F   UNK     0     143.561 145.939 139.913  0.00  0.00    -0.213 F 
HETATM   20  C   UNK     0     145.437 144.877 141.486  0.00  0.00     0.056 A 
HETATM   21  C   UNK     0     146.833 144.948 142.132  0.00  0.00     0.030 A 
ENDBRANCH   7  15
ENDBRANCH   1   7
BRANCH   2  22
HETATM   22  C   UNK     0     150.755 151.149 145.826  0.00  0.00     0.097 C 
BRANCH  22  23
HETATM   23  C   UNK     0     151.660 150.982 147.060  0.00  0.00     0.024 C 
BRANCH  23  24
HETATM   24  C   UNK     0     153.112 150.498 146.891  0.00  0.00     0.002 C 
BRANCH  24  25
HETATM   25  C   UNK     0     153.522 149.720 145.626  0.00  0.00     0.000 A 
HETATM   26  C   UNK     0     153.383 148.187 145.587  0.00  0.00     0.000 A 
HETATM   27  C   UNK     0     153.793 147.409 144.322  0.00  0.00     0.000 A 
HETATM   28  C   UNK     0     154.342 148.164 143.097  0.00  0.00     0.000 A 
HETATM   29  C   UNK     0     154.482 149.697 143.137  0.00  0.00     0.000 A 
HETATM   30  C   UNK     0     154.072 150.475 144.401  0.00  0.00     0.000 A 
ENDBRANCH  24  25
ENDBRANCH  23  24
ENDBRANCH  22  23
ENDBRANCH   2  22
TORSDOF 7
ENDMDL
MODEL 3
REMARK VINA RESULT:      -8.5      3.654      8.493
REMARK  7 active torsions:
REMARK  status: ('A' for Active; 'I' for Inactive)
REMARK    1  A    between atoms: N_3  and  C_7 
REMARK    2  A    between atoms: N_4  and  C_10 
REMARK    3  A    between atoms: C_7  and  C_11 
REMARK    4  A    between atoms: C_7  and  C_12 
REMARK    5  A    between atoms: C_10  and  C_13 
REMARK    6  A    between atoms: C_13  and  C_22 
REMARK    7  A    between atoms: C_22  and  C_25 
ROOT
HETATM    1  N   UNK     0     150.776 146.493 143.258  0.00  0.00    -0.345 N 
HETATM    2  N   UNK     0     151.352 143.502 142.799  0.00  0.00    -0.365 N 
HETATM    3  C   UNK     0     149.638 145.546 142.831  0.00  0.00     0.125 A 
HETATM    4  C   UNK     0     152.201 145.944 143.455  0.00  0.00     0.125 A 
HETATM    5  C   UNK     0     149.927 144.051 142.602  0.00  0.00     0.122 A 
HETATM    6  C   UNK     0     152.489 144.449 143.225  0.00  0.00     0.122 A 
ENDROOT
BRANCH   1   7
HETATM    7  C   UNK     0     150.488 147.988 143.487  0.00  0.00     0.040 C 
BRANCH   7   8
HETATM    8  C   UNK     0     151.599 148.914 144.018  0.00  0.00    -0.029 A 
HETATM    9  C   UNK     0     151.978 148.883 145.511  0.00  0.00     0.030 A 
HETATM   10  C   UNK     0     153.088 149.808 146.042  0.00  0.00     0.056 A 
HETATM   11  C   UNK     0     153.819 150.764 145.081  0.00  0.00     0.096 A 
HETATM   12  F   UNK     0     154.930 151.690 145.612  0.00  0.00    -0.213 F 
HETATM   13  C   UNK     0     153.440 150.795 143.589  0.00  0.00     0.056 A 
HETATM   14  C   UNK     0     152.329 149.869 143.057  0.00  0.00     0.030 A 
ENDBRANCH   7   8
BRANCH   7  15
HETATM   15  C   UNK     0     149.090 148.558 143.186  0.00  0.00    -0.029 A 
HETATM   16  C   UNK     0     148.320 149.326 144.276  0.00  0.00     0.030 A 
HETATM   17  C   UNK     0     146.921 149.897 143.975  0.00  0.00     0.056 A 
HETATM   18  C   UNK     0     146.293 149.699 142.583  0.00  0.00     0.096 A 
HETATM   19  F   UNK     0     144.894 150.269 142.282  0.00  0.00    -0.213 F 
HETATM   20  C   UNK     0     147.062 148.930 141.493  0.00  0.00     0.056 A 
HETATM   21  C   UNK     0     148.461 148.360 141.794  0.00  0.00     0.030 A 
ENDBRANCH   7  15
ENDBRANCH   1   7
BRANCH   2  22
HETATM   22  C   UNK     0     151.640 142.007 142.570  0.00  0.00     0.097 C 
BRANCH  22  23
HETATM   23  C   UNK     0     153.053 141.548 142.165  0.00  0.00     0.024 C 
BRANCH  23  24
HETATM   24  C   UNK     0     153.479 140.084 142.381  0.00  0.00     0.002 C 
BRANCH  24  25
HETATM   25  C   UNK     0     154.009 139.630 143.754  0.00  0.00     0.000 A 
HETATM   26  C   UNK     0     153.119 139.760 145.004  0.00  0.00     0.000 A 
HETATM   27  C   UNK     0     153.649 139.307 146.377  0.00  0.00     0.000 A 
HETATM   28  C   UNK     0     155.069 138.723 146.501  0.00  0.00     0.000 A 
HETATM   29  C   UNK     0     155.959 138.593 145.251  0.00  0.00     0.000 A 
HETATM   30  C   UNK     0     155.429 139.047 143.877  0.00  0.00     0.000 A 
ENDBRANCH  24  25
ENDBRANCH  23  24
ENDBRANCH  22  23
ENDBRANCH   2  22
TORSDOF 7
ENDMDL
MODEL 4
REMARK VINA RESULT:      -8.5     16.783     20.652
REMARK  7 active torsions:
REMARK  status: ('A' for Active; 'I' for Inactive)
REMARK    1  A    between atoms: N_3  and  C_7 
REMARK    2  A    between atoms: N_4  and  C_10 
REMARK    3  A    between atoms: C_7  and  C_11 
REMARK    4  A    between atoms: C_7  and  C_12 
REMARK    5  A    between atoms: C_10  and  C_13 
REMARK    6  A    between atoms: C_13  and  C_22 
REMARK    7  A    between atoms: C_22  and  C_25 
ROOT
HETATM    1  N   UNK     0     164.781 160.169 138.208  0.00  0.00    -0.345 N 
HETATM    2  N   UNK     0     165.483 159.454 135.296  0.00  0.00    -0.365 N 
HETATM    3  C   UNK     0     164.823 161.272 137.133  0.00  0.00     0.125 A 
HETATM    4  C   UNK     0     165.090 158.710 137.827  0.00  0.00     0.125 A 
HETATM    5  C   UNK     0     165.174 160.914 135.677  0.00  0.00     0.122 A 
HETATM    6  C   UNK     0     165.440 158.352 136.371  0.00  0.00     0.122 A 
ENDROOT
BRANCH   1   7
HETATM    7  C   UNK     0     164.430 160.527 139.665  0.00  0.00     0.040 C 
BRANCH   7   8
HETATM    8  C   UNK     0     162.975 160.416 140.155  0.00  0.00    -0.029 A 
HETATM    9  C   UNK     0     162.628 160.749 141.618  0.00  0.00     0.030 A 
HETATM   10  C   UNK     0     161.173 160.639 142.110  0.00  0.00     0.056 A 
HETATM   11  C   UNK     0     160.064 160.194 141.137  0.00  0.00     0.096 A 
HETATM   12  F   UNK     0     158.608 160.083 141.628  0.00  0.00    -0.213 F 
HETATM   13  C   UNK     0     160.411 159.861 139.674  0.00  0.00     0.056 A 
HETATM   14  C   UNK     0     161.866 159.972 139.184  0.00  0.00     0.030 A 
ENDBRANCH   7   8
BRANCH   7  15
HETATM   15  C   UNK     0     165.534 160.996 140.630  0.00  0.00    -0.029 A 
HETATM   16  C   UNK     0     166.021 162.457 140.592  0.00  0.00     0.030 A 
HETATM   17  C   UNK     0     167.126 162.926 141.557  0.00  0.00     0.056 A 
HETATM   18  C   UNK     0     167.744 161.934 142.561  0.00  0.00     0.096 A 
HETATM   19  F   UNK     0     168.848 162.404 143.526  0.00  0.00    -0.213 F 
HETATM   20  C   UNK     0     167.257 160.473 142.598  0.00  0.00     0.056 A 
HETATM   21  C   UNK     0     166.152 160.004 141.633  0.00  0.00     0.030 A 
ENDBRANCH   7  15
ENDBRANCH   1   7
BRANCH   2  22
HETATM   22  C   UNK     0     165.834 159.096 133.840  0.00  0.00     0.097 C 
BRANCH  22  23
HETATM   23  C   UNK     0     164.716 158.959 132.790  0.00  0.00     0.024 C 
BRANCH  23  24
HETATM   24  C   UNK     0     163.271 159.357 133.146  0.00  0.00     0.002 C 
BRANCH  24  25
HETATM   25  C   UNK     0     162.393 158.401 133.976  0.00  0.00     0.000 A 
HETATM   26  C   UNK     0     161.974 157.039 133.392  0.00  0.00     0.000 A 
HETATM   27  C   UNK     0     161.095 156.084 134.222  0.00  0.00     0.000 A 
HETATM   28  C   UNK     0     160.635 156.491 135.635  0.00  0.00     0.000 A 
HETATM   29  C   UNK     0     161.054 157.853 136.218  0.00  0.00     0.000 A 
HETATM   30  C   UNK     0     161.933 158.809 135.388  0.00  0.00     0.000 A 
ENDBRANCH  24  25
ENDBRANCH  23  24
ENDBRANCH  22  23
ENDBRANCH   2  22
TORSDOF 7
ENDMDL
MODEL 5
REMARK VINA RESULT:      -8.3      3.312      7.964
REMARK  7 active torsions:
REMARK  status: ('A' for Active; 'I' for Inactive)
REMARK    1  A    between atoms: N_3  and  C_7 
REMARK    2  A    between atoms: N_4  and  C_10 
REMARK    3  A    between atoms: C_7  and  C_11 
REMARK    4  A    between atoms: C_7  and  C_12 
REMARK    5  A    between atoms: C_10  and  C_13 
REMARK    6  A    between atoms: C_13  and  C_22 
REMARK    7  A    between atoms: C_22  and  C_25 
ROOT
HETATM    1  N   UNK     0     149.978 144.977 142.547  0.00  0.00    -0.345 N 
HETATM    2  N   UNK     0     152.041 142.734 142.099  0.00  0.00    -0.365 N 
HETATM    3  C   UNK     0     151.283 144.957 143.365  0.00  0.00     0.125 A 
HETATM    4  C   UNK     0     149.705 143.876 141.506  0.00  0.00     0.125 A 
HETATM    5  C   UNK     0     152.315 143.835 143.141  0.00  0.00     0.122 A 
HETATM    6  C   UNK     0     150.737 142.754 141.282  0.00  0.00     0.122 A 
ENDROOT
BRANCH   1   7
HETATM    7  C   UNK     0     148.946 146.098 142.771  0.00  0.00     0.040 C 
BRANCH   7   8
HETATM    8  C   UNK     0     149.236 147.219 143.786  0.00  0.00    -0.029 A 
HETATM    9  C   UNK     0     148.743 147.089 145.239  0.00  0.00     0.030 A 
HETATM   10  C   UNK     0     149.032 148.209 146.254  0.00  0.00     0.056 A 
HETATM   11  C   UNK     0     149.815 149.461 145.817  0.00  0.00     0.096 A 
HETATM   12  F   UNK     0     150.105 150.583 146.832  0.00  0.00    -0.213 F 
HETATM   13  C   UNK     0     150.308 149.592 144.364  0.00  0.00     0.056 A 
HETATM   14  C   UNK     0     150.019 148.471 143.348  0.00  0.00     0.030 A 
ENDBRANCH   7   8
BRANCH   7  15
HETATM   15  C   UNK     0     147.626 146.098 141.980  0.00  0.00    -0.029 A 
HETATM   16  C   UNK     0     147.595 146.625 140.533  0.00  0.00     0.030 A 
HETATM   17  C   UNK     0     146.274 146.625 139.741  0.00  0.00     0.056 A 
HETATM   18  C   UNK     0     144.983 146.099 140.396  0.00  0.00     0.096 A 
HETATM   19  F   UNK     0     143.662 146.099 139.605  0.00  0.00    -0.213 F 
HETATM   20  C   UNK     0     145.014 145.572 141.843  0.00  0.00     0.056 A 
HETATM   21  C   UNK     0     146.335 145.572 142.635  0.00  0.00     0.030 A 
ENDBRANCH   7  15
ENDBRANCH   1   7
BRANCH   2  22
HETATM   22  C   UNK     0     153.073 141.613 141.876  0.00  0.00     0.097 C 
BRANCH  22  23
HETATM   23  C   UNK     0     152.609 140.221 141.410  0.00  0.00     0.024 C 
BRANCH  23  24
HETATM   24  C   UNK     0     152.495 139.067 142.424  0.00  0.00     0.002 C 
BRANCH  24  25
HETATM   25  C   UNK     0     153.429 139.024 143.648  0.00  0.00     0.000 A 
HETATM   26  C   UNK     0     154.933 138.754 143.460  0.00  0.00     0.000 A 
HETATM   27  C   UNK     0     155.867 138.710 144.685  0.00  0.00     0.000 A 
HETATM   28  C   UNK     0     155.296 138.937 146.097  0.00  0.00     0.000 A 
HETATM   29  C   UNK     0     153.792 139.208 146.285  0.00  0.00     0.000 A 
HETATM   30  C   UNK     0     152.858 139.251 145.061  0.00  0.00     0.000 A 
ENDBRANCH  24  25
ENDBRANCH  23  24
ENDBRANCH  22  23
ENDBRANCH   2  22
TORSDOF 7
ENDMDL
MODEL 6
REMARK VINA RESULT:      -8.2      3.312      7.276
REMARK  7 active torsions:
REMARK  status: ('A' for Active; 'I' for Inactive)
REMARK    1  A    between atoms: N_3  and  C_7 
REMARK    2  A    between atoms: N_4  and  C_10 
REMARK    3  A    between atoms: C_7  and  C_11 
REMARK    4  A    between atoms: C_7  and  C_12 
REMARK    5  A    between atoms: C_10  and  C_13 
REMARK    6  A    between atoms: C_13  and  C_22 
REMARK    7  A    between atoms: C_22  and  C_25 
ROOT
HETATM    1  N   UNK     0     149.719 145.405 142.787  0.00  0.00    -0.345 N 
HETATM    2  N   UNK     0     151.964 143.300 142.913  0.00  0.00    -0.365 N 
HETATM    3  C   UNK     0     151.127 145.808 143.263  0.00  0.00     0.125 A 
HETATM    4  C   UNK     0     149.434 143.949 142.374  0.00  0.00     0.125 A 
HETATM    5  C   UNK     0     152.250 144.756 143.327  0.00  0.00     0.122 A 
HETATM    6  C   UNK     0     150.557 142.897 142.437  0.00  0.00     0.122 A 
ENDROOT
BRANCH   1   7
HETATM    7  C   UNK     0     148.597 146.457 142.724  0.00  0.00     0.040 C 
BRANCH   7   8
HETATM    8  C   UNK     0     147.352 146.204 141.853  0.00  0.00    -0.029 A 
HETATM    9  C   UNK     0     147.411 146.449 140.334  0.00  0.00     0.030 A 
HETATM   10  C   UNK     0     146.167 146.196 139.464  0.00  0.00     0.056 A 
HETATM   11  C   UNK     0     144.862 145.697 140.112  0.00  0.00     0.096 A 
HETATM   12  F   UNK     0     143.617 145.443 139.242  0.00  0.00    -0.213 F 
HETATM   13  C   UNK     0     144.803 145.451 141.631  0.00  0.00     0.056 A 
HETATM   14  C   UNK     0     146.048 145.705 142.502  0.00  0.00     0.030 A 
ENDBRANCH   7   8
BRANCH   7  15
HETATM   15  C   UNK     0     148.719 147.762 143.530  0.00  0.00    -0.029 A 
HETATM   16  C   UNK     0     148.624 149.122 142.814  0.00  0.00     0.030 A 
HETATM   17  C   UNK     0     148.746 150.429 143.620  0.00  0.00     0.056 A 
HETATM   18  C   UNK     0     148.963 150.375 145.144  0.00  0.00     0.096 A 
HETATM   19  F   UNK     0     149.085 151.682 145.951  0.00  0.00    -0.213 F 
HETATM   20  C   UNK     0     149.058 149.015 145.861  0.00  0.00     0.056 A 
HETATM   21  C   UNK     0     148.936 147.709 145.054  0.00  0.00     0.030 A 
ENDBRANCH   7  15
ENDBRANCH   1   7
BRANCH   2  22
HETATM   22  C   UNK     0     153.087 142.247 142.976  0.00  0.00     0.097 C 
BRANCH  22  23
HETATM   23  C   UNK     0     153.057 141.032 142.031  0.00  0.00     0.024 C 
BRANCH  23  24
HETATM   24  C   UNK     0     153.054 139.606 142.611  0.00  0.00     0.002 C 
BRANCH  24  25
HETATM   25  C   UNK     0     153.815 139.302 143.915  0.00  0.00     0.000 A 
HETATM   26  C   UNK     0     155.323 138.995 143.872  0.00  0.00     0.000 A 
HETATM   27  C   UNK     0     156.085 138.692 145.177  0.00  0.00     0.000 A 
HETATM   28  C   UNK     0     155.338 138.696 146.524  0.00  0.00     0.000 A 
HETATM   29  C   UNK     0     153.829 139.004 146.566  0.00  0.00     0.000 A 
HETATM   30  C   UNK     0     153.068 139.307 145.262  0.00  0.00     0.000 A 
ENDBRANCH  24  25
ENDBRANCH  23  24
ENDBRANCH  22  23
ENDBRANCH   2  22
TORSDOF 7
ENDMDL
MODEL 7
REMARK VINA RESULT:      -8.2     27.310     31.037
REMARK  7 active torsions:
REMARK  status: ('A' for Active; 'I' for Inactive)
REMARK    1  A    between atoms: N_3  and  C_7 
REMARK    2  A    between atoms: N_4  and  C_10 
REMARK    3  A    between atoms: C_7  and  C_11 
REMARK    4  A    between atoms: C_7  and  C_12 
REMARK    5  A    between atoms: C_10  and  C_13 
REMARK    6  A    between atoms: C_13  and  C_22 
REMARK    7  A    between atoms: C_22  and  C_25 
ROOT
HETATM    1  N   UNK     0     133.466 171.507 152.940  0.00  0.00    -0.345 N 
HETATM    2  N   UNK     0     132.603 168.588 152.472  0.00  0.00    -0.365 N 
HETATM    3  C   UNK     0     132.529 170.810 153.945  0.00  0.00     0.125 A 
HETATM    4  C   UNK     0     133.970 170.744 151.702  0.00  0.00     0.125 A 
HETATM    5  C   UNK     0     132.098 169.351 153.711  0.00  0.00     0.122 A 
HETATM    6  C   UNK     0     133.539 169.284 151.468  0.00  0.00     0.122 A 
ENDROOT
BRANCH   1   7
HETATM    7  C   UNK     0     133.897 172.967 153.174  0.00  0.00     0.040 C 
BRANCH   7   8
HETATM    8  C   UNK     0     133.061 174.120 152.588  0.00  0.00    -0.029 A 
HETATM    9  C   UNK     0     131.570 174.251 152.950  0.00  0.00     0.030 A 
HETATM   10  C   UNK     0     130.733 175.403 152.365  0.00  0.00     0.056 A 
HETATM   11  C   UNK     0     131.388 176.426 151.417  0.00  0.00     0.096 A 
HETATM   12  F   UNK     0     130.552 177.579 150.831  0.00  0.00    -0.213 F 
HETATM   13  C   UNK     0     132.879 176.295 151.055  0.00  0.00     0.056 A 
HETATM   14  C   UNK     0     133.716 175.142 151.641  0.00  0.00     0.030 A 
ENDBRANCH   7   8
BRANCH   7  15
HETATM   15  C   UNK     0     135.164 173.274 153.993  0.00  0.00    -0.029 A 
HETATM   16  C   UNK     0     135.672 174.723 154.111  0.00  0.00     0.030 A 
HETATM   17  C   UNK     0     136.939 175.031 154.930  0.00  0.00     0.056 A 
HETATM   18  C   UNK     0     137.699 173.889 155.632  0.00  0.00     0.096 A 
HETATM   19  F   UNK     0     138.966 174.197 156.451  0.00  0.00    -0.213 F 
HETATM   20  C   UNK     0     137.191 172.440 155.513  0.00  0.00     0.056 A 
HETATM   21  C   UNK     0     135.923 172.132 154.694  0.00  0.00     0.030 A 
ENDBRANCH   7  15
ENDBRANCH   1   7
BRANCH   2  22
HETATM   22  C   UNK     0     132.172 167.128 152.239  0.00  0.00     0.097 C 
BRANCH  22  23
HETATM   23  C   UNK     0     133.213 166.076 151.816  0.00  0.00     0.024 C 
BRANCH  23  24
HETATM   24  C   UNK     0     134.354 165.691 152.776  0.00  0.00     0.002 C 
BRANCH  24  25
HETATM   25  C   UNK     0     134.787 164.219 152.908  0.00  0.00     0.000 A 
HETATM   26  C   UNK     0     135.971 163.843 153.818  0.00  0.00     0.000 A 
HETATM   27  C   UNK     0     136.403 162.371 153.950  0.00  0.00     0.000 A 
HETATM   28  C   UNK     0     135.651 161.274 153.172  0.00  0.00     0.000 A 
HETATM   29  C   UNK     0     134.467 161.650 152.263  0.00  0.00     0.000 A 
HETATM   30  C   UNK     0     134.034 163.123 152.131  0.00  0.00     0.000 A 
ENDBRANCH  24  25
ENDBRANCH  23  24
ENDBRANCH  22  23
ENDBRANCH   2  22
TORSDOF 7
ENDMDL
MODEL 8
REMARK VINA RESULT:      -8.1     17.945     22.874
REMARK  7 active torsions:
REMARK  status: ('A' for Active; 'I' for Inactive)
REMARK    1  A    between atoms: N_3  and  C_7 
REMARK    2  A    between atoms: N_4  and  C_10 
REMARK    3  A    between atoms: C_7  and  C_11 
REMARK    4  A    between atoms: C_7  and  C_12 
REMARK    5  A    between atoms: C_10  and  C_13 
REMARK    6  A    between atoms: C_13  and  C_22 
REMARK    7  A    between atoms: C_22  and  C_25 
ROOT
HETATM    1  N   UNK     0     169.516 158.731 142.589  0.00  0.00    -0.345 N 
HETATM    2  N   UNK     0     167.057 160.580 142.726  0.00  0.00    -0.365 N 
HETATM    3  C   UNK     0     168.614 158.904 141.353  0.00  0.00     0.125 A 
HETATM    4  C   UNK     0     169.189 159.482 143.892  0.00  0.00     0.125 A 
HETATM    5  C   UNK     0     167.384 159.829 141.422  0.00  0.00     0.122 A 
HETATM    6  C   UNK     0     167.960 160.407 143.961  0.00  0.00     0.122 A 
ENDROOT
BRANCH   1   7
HETATM    7  C   UNK     0     170.746 157.807 142.521  0.00  0.00     0.040 C 
BRANCH   7   8
HETATM    8  C   UNK     0     171.664 157.654 143.748  0.00  0.00    -0.029 A 
HETATM    9  C   UNK     0     172.974 158.460 143.835  0.00  0.00     0.030 A 
HETATM   10  C   UNK     0     173.891 158.308 145.061  0.00  0.00     0.056 A 
HETATM   11  C   UNK     0     173.500 157.350 146.202  0.00  0.00     0.096 A 
HETATM   12  F   UNK     0     174.418 157.197 147.429  0.00  0.00    -0.213 F 
HETATM   13  C   UNK     0     172.191 156.543 146.115  0.00  0.00     0.056 A 
HETATM   14  C   UNK     0     171.273 156.696 144.887  0.00  0.00     0.030 A 
ENDBRANCH   7   8
BRANCH   7  15
HETATM   15  C   UNK     0     171.058 157.035 141.226  0.00  0.00    -0.029 A 
HETATM   16  C   UNK     0     172.083 157.596 140.223  0.00  0.00     0.030 A 
HETATM   17  C   UNK     0     172.396 156.825 138.927  0.00  0.00     0.056 A 
HETATM   18  C   UNK     0     171.683 155.491 138.634  0.00  0.00     0.096 A 
HETATM   19  F   UNK     0     171.995 154.719 137.338  0.00  0.00    -0.213 F 
HETATM   20  C   UNK     0     170.658 154.930 139.637  0.00  0.00     0.056 A 
HETATM   21  C   UNK     0     170.345 155.702 140.933  0.00  0.00     0.030 A 
ENDBRANCH   7  15
ENDBRANCH   1   7
BRANCH   2  22
HETATM   22  C   UNK     0     165.827 161.505 142.795  0.00  0.00     0.097 C 
BRANCH  22  23
HETATM   23  C   UNK     0     164.599 161.219 141.912  0.00  0.00     0.024 C 
BRANCH  23  24
HETATM   24  C   UNK     0     163.829 159.895 142.068  0.00  0.00     0.002 C 
BRANCH  24  25
HETATM   25  C   UNK     0     162.494 159.688 141.329  0.00  0.00     0.000 A 
HETATM   26  C   UNK     0     162.393 158.649 140.197  0.00  0.00     0.000 A 
HETATM   27  C   UNK     0     161.057 158.442 139.458  0.00  0.00     0.000 A 
HETATM   28  C   UNK     0     159.823 159.276 139.851  0.00  0.00     0.000 A 
HETATM   29  C   UNK     0     159.924 160.316 140.982  0.00  0.00     0.000 A 
HETATM   30  C   UNK     0     161.259 160.522 141.721  0.00  0.00     0.000 A 
ENDBRANCH  24  25
ENDBRANCH  23  24
ENDBRANCH  22  23
ENDBRANCH   2  22
TORSDOF 7
ENDMDL
MODEL 9
REMARK VINA RESULT:      -8.1     15.592     18.447
REMARK  7 active torsions:
REMARK  status: ('A' for Active; 'I' for Inactive)
REMARK    1  A    between atoms: N_3  and  C_7 
REMARK    2  A    between atoms: N_4  and  C_10 
REMARK    3  A    between atoms: C_7  and  C_11 
REMARK    4  A    between atoms: C_7  and  C_12 
REMARK    5  A    between atoms: C_10  and  C_13 
REMARK    6  A    between atoms: C_13  and  C_22 
REMARK    7  A    between atoms: C_22  and  C_25 
ROOT
HETATM    1  N   UNK     0     162.641 155.718 133.506  0.00  0.00    -0.345 N 
HETATM    2  N   UNK     0     162.198 157.835 135.698  0.00  0.00    -0.365 N 
HETATM    3  C   UNK     0     161.211 156.088 133.941  0.00  0.00     0.125 A 
HETATM    4  C   UNK     0     163.849 156.407 134.167  0.00  0.00     0.125 A 
HETATM    5  C   UNK     0     160.989 157.147 135.037  0.00  0.00     0.122 A 
HETATM    6  C   UNK     0     163.627 157.465 135.263  0.00  0.00     0.122 A 
ENDROOT
BRANCH   1   7
HETATM    7  C   UNK     0     162.863 154.659 132.410  0.00  0.00     0.040 C 
BRANCH   7   8
HETATM    8  C   UNK     0     162.701 153.164 132.739  0.00  0.00    -0.029 A 
HETATM    9  C   UNK     0     161.408 152.659 133.408  0.00  0.00     0.030 A 
HETATM   10  C   UNK     0     161.245 151.164 133.738  0.00  0.00     0.056 A 
HETATM   11  C   UNK     0     162.375 150.173 133.399  0.00  0.00     0.096 A 
HETATM   12  F   UNK     0     162.212 148.677 133.729  0.00  0.00    -0.213 F 
HETATM   13  C   UNK     0     163.667 150.678 132.730  0.00  0.00     0.056 A 
HETATM   14  C   UNK     0     163.830 152.174 132.401  0.00  0.00     0.030 A 
ENDBRANCH   7   8
BRANCH   7  15
HETATM   15  C   UNK     0     163.248 155.096 130.984  0.00  0.00    -0.029 A 
HETATM   16  C   UNK     0     162.706 156.419 130.412  0.00  0.00     0.030 A 
HETATM   17  C   UNK     0     163.090 156.856 128.986  0.00  0.00     0.056 A 
HETATM   18  C   UNK     0     164.016 155.970 128.132  0.00  0.00     0.096 A 
HETATM   19  F   UNK     0     164.401 156.407 126.706  0.00  0.00    -0.213 F 
HETATM   20  C   UNK     0     164.558 154.647 128.705  0.00  0.00     0.056 A 
HETATM   21  C   UNK     0     164.174 154.210 130.131  0.00  0.00     0.030 A 
ENDBRANCH   7  15
ENDBRANCH   1   7
BRANCH   2  22
HETATM   22  C   UNK     0     161.976 158.894 136.795  0.00  0.00     0.097 C 
BRANCH  22  23
HETATM   23  C   UNK     0     160.581 159.074 137.420  0.00  0.00     0.024 C 
BRANCH  23  24
HETATM   24  C   UNK     0     160.284 158.502 138.819  0.00  0.00     0.002 C 
BRANCH  24  25
HETATM   25  C   UNK     0     161.013 159.067 140.052  0.00  0.00     0.000 A 
HETATM   26  C   UNK     0     162.434 158.583 140.396  0.00  0.00     0.000 A 
HETATM   27  C   UNK     0     163.163 159.149 141.630  0.00  0.00     0.000 A 
HETATM   28  C   UNK     0     162.470 160.199 142.519  0.00  0.00     0.000 A 
HETATM   29  C   UNK     0     161.049 160.683 142.176  0.00  0.00     0.000 A 
HETATM   30  C   UNK     0     160.321 160.117 140.942  0.00  0.00     0.000 A 
ENDBRANCH  24  25
ENDBRANCH  23  24
ENDBRANCH  22  23
ENDBRANCH   2  22
TORSDOF 7
ENDMDL
MODEL 10
REMARK VINA RESULT:      -8.1     17.813     22.919
REMARK  7 active torsions:
REMARK  status: ('A' for Active; 'I' for Inactive)
REMARK    1  A    between atoms: N_3  and  C_7 
REMARK    2  A    between atoms: N_4  and  C_10 
REMARK    3  A    between atoms: C_7  and  C_11 
REMARK    4  A    between atoms: C_7  and  C_12 
REMARK    5  A    between atoms: C_10  and  C_13 
REMARK    6  A    between atoms: C_13  and  C_22 
REMARK    7  A    between atoms: C_22  and  C_25 
ROOT
HETATM    1  N   UNK     0     167.143 160.706 141.794  0.00  0.00    -0.345 N 
HETATM    2  N   UNK     0     164.160 160.434 141.077  0.00  0.00    -0.365 N 
HETATM    3  C   UNK     0     166.066 161.180 142.788  0.00  0.00     0.125 A 
HETATM    4  C   UNK     0     166.728 160.097 140.442  0.00  0.00     0.125 A 
HETATM    5  C   UNK     0     164.574 161.044 142.429  0.00  0.00     0.122 A 
HETATM    6  C   UNK     0     165.237 159.961 140.084  0.00  0.00     0.122 A 
ENDROOT
BRANCH   1   7
HETATM    7  C   UNK     0     168.634 160.842 142.153  0.00  0.00     0.040 C 
BRANCH   7   8
HETATM    8  C   UNK     0     169.342 159.724 142.941  0.00  0.00    -0.029 A 
HETATM    9  C   UNK     0     170.534 158.976 142.315  0.00  0.00     0.030 A 
HETATM   10  C   UNK     0     171.241 157.858 143.102  0.00  0.00     0.056 A 
HETATM   11  C   UNK     0     170.757 157.488 144.516  0.00  0.00     0.096 A 
HETATM   12  F   UNK     0     171.464 156.369 145.305  0.00  0.00    -0.213 F 
HETATM   13  C   UNK     0     169.565 158.235 145.142  0.00  0.00     0.056 A 
HETATM   14  C   UNK     0     168.857 159.354 144.354  0.00  0.00     0.030 A 
ENDBRANCH   7   8
BRANCH   7  15
HETATM   15  C   UNK     0     169.419 162.095 141.723  0.00  0.00    -0.029 A 
HETATM   16  C   UNK     0     169.907 163.099 142.785  0.00  0.00     0.030 A 
HETATM   17  C   UNK     0     170.691 164.354 142.356  0.00  0.00     0.056 A 
HETATM   18  C   UNK     0     170.988 164.604 140.865  0.00  0.00     0.096 A 
HETATM   19  F   UNK     0     171.772 165.858 140.436  0.00  0.00    -0.213 F 
HETATM   20  C   UNK     0     170.499 163.600 139.804  0.00  0.00     0.056 A 
HETATM   21  C   UNK     0     169.715 162.346 140.233  0.00  0.00     0.030 A 
ENDBRANCH   7  15
ENDBRANCH   1   7
BRANCH   2  22
HETATM   22  C   UNK     0     162.668 160.299 140.718  0.00  0.00     0.097 C 
BRANCH  22  23
HETATM   23  C   UNK     0     162.058 158.906 140.477  0.00  0.00     0.024 C 
BRANCH  23  24
HETATM   24  C   UNK     0     160.789 158.760 139.617  0.00  0.00     0.002 C 
BRANCH  24  25
HETATM   25  C   UNK     0     160.891 158.213 138.181  0.00  0.00     0.000 A 
HETATM   26  C   UNK     0     160.191 156.893 137.808  0.00  0.00     0.000 A 
HETATM   27  C   UNK     0     160.293 156.346 136.372  0.00  0.00     0.000 A 
HETATM   28  C   UNK     0     161.094 157.120 135.308  0.00  0.00     0.000 A 
HETATM   29  C   UNK     0     161.793 158.441 135.681  0.00  0.00     0.000 A 
HETATM   30  C   UNK     0     161.692 158.987 137.117  0.00  0.00     0.000 A 
ENDBRANCH  24  25
ENDBRANCH  23  24
ENDBRANCH  22  23
ENDBRANCH   2  22
TORSDOF 7
ENDMDL
