MODEL 1
REMARK VINA RESULT:      -5.4      0.000      0.000
REMARK  3 active torsions:
REMARK  status: ('A' for Active; 'I' for Inactive)
REMARK    1  A    between atoms: N_1  and  C_2 
REMARK    2  A    between atoms: C_2  and  C_5 
REMARK    3  A    between atoms: C_2  and  C_6 
ROOT
HETATM    1  N   UNK     0     172.205 149.762 163.555  0.00  0.00    -0.311 N 
HETATM    2  C   UNK     0     173.471 149.520 164.397  0.00  0.00     0.171 A 
HETATM    3  C   UNK     0     171.008 149.873 164.517  0.00  0.00     0.108 A 
HETATM    4  C   UNK     0     173.056 149.483 165.880  0.00  0.00     0.075 A 
HETATM    5  O   UNK     0     174.901 149.347 163.852  0.00  0.00    -0.176 OA
HETATM    6  C   UNK     0     171.534 149.701 165.954  0.00  0.00     0.033 A 
ENDROOT
BRANCH   1   7
HETATM    7  C   UNK     0     172.146 149.872 162.020  0.00  0.00     0.077 C 
BRANCH   7   8
HETATM    8  C   UNK     0     172.072 151.256 161.350  0.00  0.00     0.212 C 
HETATM    9  N   UNK     0     170.737 152.023 161.312  0.00  0.00    -0.070 NA
HETATM   10  O   UNK     0     173.333 151.873 160.717  0.00  0.00    -0.174 OA
ENDBRANCH   7   8
BRANCH   7  11
HETATM   11  C   UNK     0     172.160 148.597 161.156  0.00  0.00     0.047 C 
HETATM   12  C   UNK     0     171.915 148.693 159.638  0.00  0.00     0.007 C 
ENDBRANCH   7  11
ENDBRANCH   1   7
TORSDOF 3
ENDMDL
MODEL 2
REMARK VINA RESULT:      -5.4     47.868     49.407
REMARK  3 active torsions:
REMARK  status: ('A' for Active; 'I' for Inactive)
REMARK    1  A    between atoms: N_1  and  C_2 
REMARK    2  A    between atoms: C_2  and  C_5 
REMARK    3  A    between atoms: C_2  and  C_6 
ROOT
HETATM    1  N   UNK     0     156.576 156.089 208.912  0.00  0.00    -0.311 N 
HETATM    2  C   UNK     0     155.231 155.604 209.482  0.00  0.00     0.171 A 
HETATM    3  C   UNK     0     157.438 154.850 208.608  0.00  0.00     0.108 A 
HETATM    4  C   UNK     0     155.262 154.065 209.532  0.00  0.00     0.075 A 
HETATM    5  O   UNK     0     154.060 156.501 209.926  0.00  0.00    -0.176 OA
HETATM    6  C   UNK     0     156.626 153.599 208.992  0.00  0.00     0.033 A 
ENDROOT
BRANCH   1   7
HETATM    7  C   UNK     0     156.987 157.555 208.684  0.00  0.00     0.077 C 
BRANCH   7   8
HETATM    8  C   UNK     0     156.993 158.545 209.863  0.00  0.00     0.212 C 
HETATM    9  N   UNK     0     155.795 159.488 210.083  0.00  0.00    -0.070 NA
HETATM   10  O   UNK     0     158.197 158.593 210.821  0.00  0.00    -0.174 OA
ENDBRANCH   7   8
BRANCH   7  11
HETATM   11  C   UNK     0     157.391 158.032 207.276  0.00  0.00     0.047 C 
HETATM   12  C   UNK     0     156.466 157.759 206.075  0.00  0.00     0.007 C 
ENDBRANCH   7  11
ENDBRANCH   1   7
TORSDOF 3
ENDMDL
MODEL 3
REMARK VINA RESULT:      -5.2     57.425     58.749
REMARK  3 active torsions:
REMARK  status: ('A' for Active; 'I' for Inactive)
REMARK    1  A    between atoms: N_1  and  C_2 
REMARK    2  A    between atoms: C_2  and  C_5 
REMARK    3  A    between atoms: C_2  and  C_6 
ROOT
HETATM    1  N   UNK     0     127.832 187.254 157.874  0.00  0.00    -0.311 N 
HETATM    2  C   UNK     0     128.691 186.028 157.517  0.00  0.00     0.171 A 
HETATM    3  C   UNK     0     127.550 187.214 159.387  0.00  0.00     0.108 A 
HETATM    4  C   UNK     0     128.940 185.228 158.810  0.00  0.00     0.075 A 
HETATM    5  O   UNK     0     129.210 185.663 156.113  0.00  0.00    -0.176 OA
HETATM    6  C   UNK     0     128.235 185.961 159.965  0.00  0.00     0.033 A 
ENDROOT
BRANCH   1   7
HETATM    7  C   UNK     0     127.340 188.332 156.890  0.00  0.00     0.077 C 
BRANCH   7   8
HETATM    8  C   UNK     0     126.308 187.973 155.806  0.00  0.00     0.212 C 
HETATM    9  N   UNK     0     124.817 188.290 156.028  0.00  0.00    -0.070 NA
HETATM   10  O   UNK     0     126.765 187.296 154.501  0.00  0.00    -0.174 OA
ENDBRANCH   7   8
BRANCH   7  11
HETATM   11  C   UNK     0     127.883 189.771 156.990  0.00  0.00     0.047 C 
HETATM   12  C   UNK     0     127.355 190.861 156.038  0.00  0.00     0.007 C 
ENDBRANCH   7  11
ENDBRANCH   1   7
TORSDOF 3
ENDMDL
MODEL 4
REMARK VINA RESULT:      -5.1     47.463     49.307
REMARK  3 active torsions:
REMARK  status: ('A' for Active; 'I' for Inactive)
REMARK    1  A    between atoms: N_1  and  C_2 
REMARK    2  A    between atoms: C_2  and  C_5 
REMARK    3  A    between atoms: C_2  and  C_6 
ROOT
HETATM    1  N   UNK     0     156.235 156.148 209.030  0.00  0.00    -0.311 N 
HETATM    2  C   UNK     0     157.010 154.818 208.988  0.00  0.00     0.171 A 
HETATM    3  C   UNK     0     154.771 155.834 209.391  0.00  0.00     0.108 A 
HETATM    4  C   UNK     0     156.025 153.682 209.324  0.00  0.00     0.075 A 
HETATM    5  O   UNK     0     158.507 154.653 208.667  0.00  0.00    -0.176 OA
HETATM    6  C   UNK     0     154.642 154.310 209.573  0.00  0.00     0.033 A 
ENDROOT
BRANCH   1   7
HETATM    7  C   UNK     0     156.820 157.546 208.757  0.00  0.00     0.077 C 
BRANCH   7   8
HETATM    8  C   UNK     0     156.854 158.598 209.880  0.00  0.00     0.212 C 
HETATM    9  N   UNK     0     158.127 158.779 210.728  0.00  0.00    -0.070 NA
HETATM   10  O   UNK     0     155.616 159.471 210.155  0.00  0.00    -0.174 OA
ENDBRANCH   7   8
BRANCH   7  11
HETATM   11  C   UNK     0     157.372 157.891 207.361  0.00  0.00     0.047 C 
HETATM   12  C   UNK     0     156.484 157.710 206.116  0.00  0.00     0.007 C 
ENDBRANCH   7  11
ENDBRANCH   1   7
TORSDOF 3
ENDMDL
MODEL 5
REMARK VINA RESULT:      -4.9     52.324     53.214
REMARK  3 active torsions:
REMARK  status: ('A' for Active; 'I' for Inactive)
REMARK    1  A    between atoms: N_1  and  C_2 
REMARK    2  A    between atoms: C_2  and  C_5 
REMARK    3  A    between atoms: C_2  and  C_6 
ROOT
HETATM    1  N   UNK     0     164.949 137.737 112.216  0.00  0.00    -0.311 N 
HETATM    2  C   UNK     0     165.082 136.265 111.786  0.00  0.00     0.171 A 
HETATM    3  C   UNK     0     166.171 138.092 113.083  0.00  0.00     0.108 A 
HETATM    4  C   UNK     0     166.387 135.710 112.388  0.00  0.00     0.075 A 
HETATM    5  O   UNK     0     164.086 135.485 110.909  0.00  0.00    -0.176 OA
HETATM    6  C   UNK     0     167.060 136.838 113.189  0.00  0.00     0.033 A 
ENDROOT
BRANCH   1   7
HETATM    7  C   UNK     0     163.797 138.688 111.844  0.00  0.00     0.077 C 
BRANCH   7   8
HETATM    8  C   UNK     0     162.482 138.121 111.278  0.00  0.00     0.212 C 
HETATM    9  N   UNK     0     161.375 137.642 112.235  0.00  0.00    -0.070 NA
HETATM   10  O   UNK     0     162.275 138.032 109.754  0.00  0.00    -0.174 OA
ENDBRANCH   7   8
BRANCH   7  11
HETATM   11  C   UNK     0     163.958 140.208 112.039  0.00  0.00     0.047 C 
HETATM   12  C   UNK     0     163.530 141.178 110.922  0.00  0.00     0.007 C 
ENDBRANCH   7  11
ENDBRANCH   1   7
TORSDOF 3
ENDMDL
MODEL 6
REMARK VINA RESULT:      -4.9     94.044     95.145
REMARK  3 active torsions:
REMARK  status: ('A' for Active; 'I' for Inactive)
REMARK    1  A    between atoms: N_1  and  C_2 
REMARK    2  A    between atoms: C_2  and  C_5 
REMARK    3  A    between atoms: C_2  and  C_6 
ROOT
HETATM    1  N   UNK     0     102.059 197.808 121.186  0.00  0.00    -0.311 N 
HETATM    2  C   UNK     0     102.257 199.310 120.914  0.00  0.00     0.171 A 
HETATM    3  C   UNK     0     103.100 197.373 122.233  0.00  0.00     0.108 A 
HETATM    4  C   UNK     0     103.421 199.805 121.793  0.00  0.00     0.075 A 
HETATM    5  O   UNK     0     101.434 200.169 119.934  0.00  0.00    -0.176 OA
HETATM    6  C   UNK     0     103.942 198.608 122.609  0.00  0.00     0.033 A 
ENDROOT
BRANCH   1   7
HETATM    7  C   UNK     0     101.005 196.900 120.526  0.00  0.00     0.077 C 
BRANCH   7   8
HETATM    8  C   UNK     0     101.025 196.677 119.003  0.00  0.00     0.212 C 
HETATM    9  N   UNK     0     101.791 195.481 118.409  0.00  0.00    -0.070 NA
HETATM   10  O   UNK     0     100.278 197.652 118.072  0.00  0.00    -0.174 OA
ENDBRANCH   7   8
BRANCH   7  11
HETATM   11  C   UNK     0      99.930 196.214 121.390  0.00  0.00     0.047 C 
HETATM   12  C   UNK     0     100.164 196.020 122.900  0.00  0.00     0.007 C 
ENDBRANCH   7  11
ENDBRANCH   1   7
TORSDOF 3
ENDMDL
MODEL 7
REMARK VINA RESULT:      -4.8     32.564     33.848
REMARK  3 active torsions:
REMARK  status: ('A' for Active; 'I' for Inactive)
REMARK    1  A    between atoms: N_1  and  C_2 
REMARK    2  A    between atoms: C_2  and  C_5 
REMARK    3  A    between atoms: C_2  and  C_6 
ROOT
HETATM    1  N   UNK     0     171.479 157.316 195.205  0.00  0.00    -0.311 N 
HETATM    2  C   UNK     0     171.396 158.631 194.409  0.00  0.00     0.171 A 
HETATM    3  C   UNK     0     170.134 156.582 195.053  0.00  0.00     0.108 A 
HETATM    4  C   UNK     0     170.000 158.710 193.764  0.00  0.00     0.075 A 
HETATM    5  O   UNK     0     172.514 159.683 194.280  0.00  0.00    -0.176 OA
HETATM    6  C   UNK     0     169.220 157.444 194.161  0.00  0.00     0.033 A 
ENDROOT
BRANCH   1   7
HETATM    7  C   UNK     0     172.694 156.822 196.013  0.00  0.00     0.077 C 
BRANCH   7   8
HETATM    8  C   UNK     0     172.650 156.830 197.552  0.00  0.00     0.212 C 
HETATM    9  N   UNK     0     171.433 157.426 198.284  0.00  0.00    -0.070 NA
HETATM   10  O   UNK     0     173.823 156.244 198.359  0.00  0.00    -0.174 OA
ENDBRANCH   7   8
BRANCH   7  11
HETATM   11  C   UNK     0     173.952 156.319 195.281  0.00  0.00     0.047 C 
HETATM   12  C   UNK     0     175.186 157.232 195.153  0.00  0.00     0.007 C 
ENDBRANCH   7  11
ENDBRANCH   1   7
TORSDOF 3
ENDMDL
MODEL 8
REMARK VINA RESULT:      -4.7     28.977     31.147
REMARK  3 active torsions:
REMARK  status: ('A' for Active; 'I' for Inactive)
REMARK    1  A    between atoms: N_1  and  C_2 
REMARK    2  A    between atoms: C_2  and  C_5 
REMARK    3  A    between atoms: C_2  and  C_6 
ROOT
HETATM    1  N   UNK     0     148.121 148.400 142.763  0.00  0.00    -0.311 N 
HETATM    2  C   UNK     0     147.005 149.362 143.206  0.00  0.00     0.171 A 
HETATM    3  C   UNK     0     147.813 147.942 141.326  0.00  0.00     0.108 A 
HETATM    4  C   UNK     0     146.005 149.500 142.042  0.00  0.00     0.075 A 
HETATM    5  O   UNK     0     146.904 150.065 144.573  0.00  0.00    -0.176 OA
HETATM    6  C   UNK     0     146.505 148.623 140.880  0.00  0.00     0.033 A 
ENDROOT
BRANCH   1   7
HETATM    7  C   UNK     0     149.334 147.970 143.609  0.00  0.00     0.077 C 
BRANCH   7   8
HETATM    8  C   UNK     0     150.753 148.405 143.199  0.00  0.00     0.212 C 
HETATM    9  N   UNK     0     151.410 147.801 141.944  0.00  0.00    -0.070 NA
HETATM   10  O   UNK     0     151.514 149.445 144.042  0.00  0.00    -0.174 OA
ENDBRANCH   7   8
BRANCH   7  11
HETATM   11  C   UNK     0     149.128 147.104 144.866  0.00  0.00     0.047 C 
HETATM   12  C   UNK     0     148.983 147.773 146.247  0.00  0.00     0.007 C 
ENDBRANCH   7  11
ENDBRANCH   1   7
TORSDOF 3
ENDMDL
MODEL 9
REMARK VINA RESULT:      -4.7     51.442     52.373
REMARK  3 active torsions:
REMARK  status: ('A' for Active; 'I' for Inactive)
REMARK    1  A    between atoms: N_1  and  C_2 
REMARK    2  A    between atoms: C_2  and  C_5 
REMARK    3  A    between atoms: C_2  and  C_6 
ROOT
HETATM    1  N   UNK     0     164.827 137.480 112.369  0.00  0.00    -0.311 N 
HETATM    2  C   UNK     0     166.173 137.819 113.034  0.00  0.00     0.171 A 
HETATM    3  C   UNK     0     164.919 136.046 111.813  0.00  0.00     0.108 A 
HETATM    4  C   UNK     0     167.097 136.596 112.891  0.00  0.00     0.075 A 
HETATM    5  O   UNK     0     166.532 139.149 113.723  0.00  0.00    -0.176 OA
HETATM    6  C   UNK     0     166.323 135.500 112.136  0.00  0.00     0.033 A 
ENDROOT
BRANCH   1   7
HETATM    7  C   UNK     0     163.603 138.410 112.274  0.00  0.00     0.077 C 
BRANCH   7   8
HETATM    8  C   UNK     0     162.328 138.088 113.074  0.00  0.00     0.212 C 
HETATM    9  N   UNK     0     161.818 139.077 114.140  0.00  0.00    -0.070 NA
HETATM   10  O   UNK     0     161.563 136.778 112.810  0.00  0.00    -0.174 OA
ENDBRANCH   7   8
BRANCH   7  11
HETATM   11  C   UNK     0     163.655 139.662 111.379  0.00  0.00     0.047 C 
HETATM   12  C   UNK     0     164.140 141.004 111.959  0.00  0.00     0.007 C 
ENDBRANCH   7  11
ENDBRANCH   1   7
TORSDOF 3
ENDMDL
MODEL 10
REMARK VINA RESULT:      -4.6     33.483     34.482
REMARK  3 active torsions:
REMARK  status: ('A' for Active; 'I' for Inactive)
REMARK    1  A    between atoms: N_1  and  C_2 
REMARK    2  A    between atoms: C_2  and  C_5 
REMARK    3  A    between atoms: C_2  and  C_6 
ROOT
HETATM    1  N   UNK     0     174.141 157.994 195.670  0.00  0.00    -0.311 N 
HETATM    2  C   UNK     0     174.958 159.159 196.256  0.00  0.00     0.171 A 
HETATM    3  C   UNK     0     174.936 157.399 194.492  0.00  0.00     0.108 A 
HETATM    4  C   UNK     0     176.259 159.285 195.441  0.00  0.00     0.075 A 
HETATM    5  O   UNK     0     174.548 160.043 197.448  0.00  0.00    -0.176 OA
HETATM    6  C   UNK     0     176.245 158.198 194.351  0.00  0.00     0.033 A 
ENDROOT
BRANCH   1   7
HETATM    7  C   UNK     0     172.768 157.508 196.172  0.00  0.00     0.077 C 
BRANCH   7   8
HETATM    8  C   UNK     0     172.600 157.054 197.634  0.00  0.00     0.212 C 
HETATM    9  N   UNK     0     171.322 157.421 198.412  0.00  0.00    -0.070 NA
HETATM   10  O   UNK     0     173.709 156.234 198.318  0.00  0.00    -0.174 OA
ENDBRANCH   7   8
BRANCH   7  11
HETATM   11  C   UNK     0     171.564 157.476 195.213  0.00  0.00     0.047 C 
HETATM   12  C   UNK     0     170.786 156.164 194.996  0.00  0.00     0.007 C 
ENDBRANCH   7  11
ENDBRANCH   1   7
TORSDOF 3
ENDMDL
