MODEL 1
REMARK VINA RESULT:      -8.4      0.000      0.000
REMARK  0 active torsions:
REMARK  status: ('A' for Active; 'I' for Inactive)
ROOT
HETATM    1 Cl   UNK     0     152.307 146.198 142.260  0.00  0.00    -0.100 Cl
HETATM    2 Cl   UNK     0     150.191 147.667 142.530  0.00  0.00    -0.158 Cl
HETATM    3  O   UNK     0     148.271 152.864 147.060  0.00  0.00    -0.165 OA
HETATM    4  O   UNK     0     150.846 152.471 148.279  0.00  0.00    -0.165 OA
HETATM    5  N   UNK     0     151.639 150.570 146.680  0.00  0.00    -0.222 NA
HETATM    6  N   UNK     0     148.540 151.043 145.213  0.00  0.00    -0.217 NA
HETATM    7  C   UNK     0     150.535 149.248 144.504  0.00  0.00     0.011 A 
HETATM    8  C   UNK     0     149.155 149.917 144.360  0.00  0.00     0.077 A 
HETATM    9  C   UNK     0     151.640 149.538 145.536  0.00  0.00     0.059 A 
HETATM   10  C   UNK     0     148.274 149.392 143.212  0.00  0.00     0.001 A 
HETATM   11  C   UNK     0     149.154 151.776 146.421  0.00  0.00     0.257 A 
HETATM   12  C   UNK     0     150.733 148.120 143.381  0.00  0.00     0.059 A 
HETATM   13  C   UNK     0     150.533 151.566 147.074  0.00  0.00     0.257 A 
HETATM   14  C   UNK     0     153.020 148.721 145.516  0.00  0.00     0.048 A 
HETATM   15  C   UNK     0     152.100 147.284 143.332  0.00  0.00     0.128 A 
HETATM   16  C   UNK     0     153.252 147.586 144.407  0.00  0.00     0.036 A 
HETATM   17  C   UNK     0     148.792 148.267 142.296  0.00  0.00     0.019 A 
HETATM   18  C   UNK     0     146.875 149.993 142.978  0.00  0.00     0.028 A 
HETATM   19  C   UNK     0     147.910 147.742 141.148  0.00  0.00     0.036 A 
HETATM   20  C   UNK     0     145.994 149.468 141.830  0.00  0.00     0.005 A 
HETATM   21  C   UNK     0     146.512 148.342 140.915  0.00  0.00     0.006 A 
ENDROOT
TORSDOF 0
ENDMDL
MODEL 2
REMARK VINA RESULT:      -8.1     34.837     37.607
REMARK  0 active torsions:
REMARK  status: ('A' for Active; 'I' for Inactive)
ROOT
HETATM    1 Cl   UNK     0     147.073 182.065 165.245  0.00  0.00    -0.100 Cl
HETATM    2 Cl   UNK     0     146.026 181.036 163.110  0.00  0.00    -0.158 Cl
HETATM    3  O   UNK     0     139.857 182.003 159.615  0.00  0.00    -0.165 OA
HETATM    4  O   UNK     0     139.246 183.941 161.650  0.00  0.00    -0.165 OA
HETATM    5  N   UNK     0     141.462 183.663 162.995  0.00  0.00    -0.222 NA
HETATM    6  N   UNK     0     142.198 181.330 160.546  0.00  0.00    -0.217 NA
HETATM    7  C   UNK     0     143.738 182.099 162.724  0.00  0.00     0.011 A 
HETATM    8  C   UNK     0     143.446 181.286 161.448  0.00  0.00     0.077 A 
HETATM    9  C   UNK     0     142.856 183.156 163.412  0.00  0.00     0.059 A 
HETATM   10  C   UNK     0     144.546 180.298 161.018  0.00  0.00     0.001 A 
HETATM   11  C   UNK     0     140.935 182.199 160.697  0.00  0.00     0.257 A 
HETATM   12  C   UNK     0     145.174 181.708 163.323  0.00  0.00     0.059 A 
HETATM   13  C   UNK     0     140.607 183.237 161.787  0.00  0.00     0.257 A 
HETATM   14  C   UNK     0     143.348 183.896 164.747  0.00  0.00     0.048 A 
HETATM   15  C   UNK     0     145.697 182.428 164.657  0.00  0.00     0.128 A 
HETATM   16  C   UNK     0     144.778 183.530 165.373  0.00  0.00     0.036 A 
HETATM   17  C   UNK     0     145.837 180.173 161.849  0.00  0.00     0.019 A 
HETATM   18  C   UNK     0     144.356 179.435 159.756  0.00  0.00     0.028 A 
HETATM   19  C   UNK     0     146.937 179.185 161.419  0.00  0.00     0.036 A 
HETATM   20  C   UNK     0     145.457 178.448 159.326  0.00  0.00     0.005 A 
HETATM   21  C   UNK     0     146.747 178.323 160.157  0.00  0.00     0.006 A 
ENDROOT
TORSDOF 0
ENDMDL
MODEL 3
REMARK VINA RESULT:      -8.0      2.762      4.999
REMARK  0 active torsions:
REMARK  status: ('A' for Active; 'I' for Inactive)
ROOT
HETATM    1 Cl   UNK     0     145.863 146.744 141.115  0.00  0.00    -0.100 Cl
HETATM    2 Cl   UNK     0     148.156 145.980 142.047  0.00  0.00    -0.158 Cl
HETATM    3  O   UNK     0     153.110 149.022 146.219  0.00  0.00    -0.165 OA
HETATM    4  O   UNK     0     151.357 151.301 146.287  0.00  0.00    -0.165 OA
HETATM    5  N   UNK     0     149.493 150.282 144.775  0.00  0.00    -0.222 NA
HETATM    6  N   UNK     0     151.603 147.540 144.693  0.00  0.00    -0.217 NA
HETATM    7  C   UNK     0     149.136 147.864 143.462  0.00  0.00     0.011 A 
HETATM    8  C   UNK     0     150.416 147.086 143.821  0.00  0.00     0.077 A 
HETATM    9  C   UNK     0     148.725 149.285 143.887  0.00  0.00     0.059 A 
HETATM   10  C   UNK     0     150.526 145.669 143.230  0.00  0.00     0.001 A 
HETATM   11  C   UNK     0     151.800 148.883 145.422  0.00  0.00     0.257 A 
HETATM   12  C   UNK     0     148.185 146.978 142.523  0.00  0.00     0.059 A 
HETATM   13  C   UNK     0     150.861 150.103 145.458  0.00  0.00     0.257 A 
HETATM   14  C   UNK     0     147.334 149.920 143.401  0.00  0.00     0.048 A 
HETATM   15  C   UNK     0     146.787 147.581 142.018  0.00  0.00     0.128 A 
HETATM   16  C   UNK     0     146.359 149.062 142.460  0.00  0.00     0.036 A 
HETATM   17  C   UNK     0     149.395 145.115 142.342  0.00  0.00     0.019 A 
HETATM   18  C   UNK     0     151.766 144.804 143.526  0.00  0.00     0.028 A 
HETATM   19  C   UNK     0     149.505 143.697 141.751  0.00  0.00     0.036 A 
HETATM   20  C   UNK     0     151.875 143.387 142.935  0.00  0.00     0.005 A 
HETATM   21  C   UNK     0     150.745 142.834 142.047  0.00  0.00     0.006 A 
ENDROOT
TORSDOF 0
ENDMDL
MODEL 4
REMARK VINA RESULT:      -7.9      3.769      6.231
REMARK  0 active torsions:
REMARK  status: ('A' for Active; 'I' for Inactive)
ROOT
HETATM    1 Cl   UNK     0     145.768 143.494 140.481  0.00  0.00    -0.100 Cl
HETATM    2 Cl   UNK     0     148.118 143.903 141.490  0.00  0.00    -0.158 Cl
HETATM    3  O   UNK     0     151.660 149.720 143.689  0.00  0.00    -0.165 OA
HETATM    4  O   UNK     0     149.309 151.188 142.924  0.00  0.00    -0.165 OA
HETATM    5  N   UNK     0     147.935 149.132 142.097  0.00  0.00    -0.222 NA
HETATM    6  N   UNK     0     150.764 147.365 143.018  0.00  0.00    -0.217 NA
HETATM    7  C   UNK     0     148.399 146.401 141.930  0.00  0.00     0.011 A 
HETATM    8  C   UNK     0     149.826 146.261 142.492  0.00  0.00     0.077 A 
HETATM    9  C   UNK     0     147.558 147.678 141.754  0.00  0.00     0.059 A 
HETATM   10  C   UNK     0     150.391 144.829 142.535  0.00  0.00     0.001 A 
HETATM   11  C   UNK     0     150.506 148.880 143.110  0.00  0.00     0.257 A 
HETATM   12  C   UNK     0     147.819 144.967 141.507  0.00  0.00     0.059 A 
HETATM   13  C   UNK     0     149.247 149.667 142.700  0.00  0.00     0.257 A 
HETATM   14  C   UNK     0     146.076 147.610 141.143  0.00  0.00     0.048 A 
HETATM   15  C   UNK     0     146.341 144.862 140.892  0.00  0.00     0.128 A 
HETATM   16  C   UNK     0     145.464 146.193 140.709  0.00  0.00     0.036 A 
HETATM   17  C   UNK     0     149.537 143.649 142.034  0.00  0.00     0.019 A 
HETATM   18  C   UNK     0     151.809 144.576 143.079  0.00  0.00     0.028 A 
HETATM   19  C   UNK     0     150.101 142.217 142.077  0.00  0.00     0.036 A 
HETATM   20  C   UNK     0     152.374 143.144 143.122  0.00  0.00     0.005 A 
HETATM   21  C   UNK     0     151.519 141.964 142.621  0.00  0.00     0.006 A 
ENDROOT
TORSDOF 0
ENDMDL
MODEL 5
REMARK VINA RESULT:      -7.9     23.753     26.094
REMARK  0 active torsions:
REMARK  status: ('A' for Active; 'I' for Inactive)
ROOT
HETATM    1 Cl   UNK     0     174.287 155.531 147.931  0.00  0.00    -0.100 Cl
HETATM    2 Cl   UNK     0     173.094 156.891 146.077  0.00  0.00    -0.158 Cl
HETATM    3  O   UNK     0     175.273 160.116 140.072  0.00  0.00    -0.165 OA
HETATM    4  O   UNK     0     177.902 159.180 140.767  0.00  0.00    -0.165 OA
HETATM    5  N   UNK     0     177.210 157.974 142.973  0.00  0.00    -0.222 NA
HETATM    6  N   UNK     0     174.046 159.101 142.136  0.00  0.00    -0.217 NA
HETATM    7  C   UNK     0     174.825 157.608 144.343  0.00  0.00     0.011 A 
HETATM    8  C   UNK     0     173.803 158.346 143.457  0.00  0.00     0.077 A 
HETATM    9  C   UNK     0     176.340 157.442 144.128  0.00  0.00     0.059 A 
HETATM   10  C   UNK     0     172.347 158.326 143.957  0.00  0.00     0.001 A 
HETATM   11  C   UNK     0     175.371 159.304 141.377  0.00  0.00     0.257 A 
HETATM   12  C   UNK     0     174.100 156.970 145.624  0.00  0.00     0.059 A 
HETATM   13  C   UNK     0     176.779 158.803 141.749  0.00  0.00     0.257 A 
HETATM   14  C   UNK     0     177.237 156.628 145.179  0.00  0.00     0.048 A 
HETATM   15  C   UNK     0     174.966 156.150 146.696  0.00  0.00     0.128 A 
HETATM   16  C   UNK     0     176.545 155.978 146.472  0.00  0.00     0.036 A 
HETATM   17  C   UNK     0     171.992 157.599 145.267  0.00  0.00     0.019 A 
HETATM   18  C   UNK     0     171.245 159.034 143.146  0.00  0.00     0.028 A 
HETATM   19  C   UNK     0     170.536 157.580 145.767  0.00  0.00     0.036 A 
HETATM   20  C   UNK     0     169.788 159.015 143.646  0.00  0.00     0.005 A 
HETATM   21  C   UNK     0     169.434 158.287 144.957  0.00  0.00     0.006 A 
ENDROOT
TORSDOF 0
ENDMDL
MODEL 6
REMARK VINA RESULT:      -7.9     23.540     25.939
REMARK  0 active torsions:
REMARK  status: ('A' for Active; 'I' for Inactive)
ROOT
HETATM    1 Cl   UNK     0     175.101 159.652 141.026  0.00  0.00    -0.100 Cl
HETATM    2 Cl   UNK     0     173.548 158.790 142.911  0.00  0.00    -0.158 Cl
HETATM    3  O   UNK     0     174.562 154.850 148.799  0.00  0.00    -0.165 OA
HETATM    4  O   UNK     0     177.327 154.759 148.012  0.00  0.00    -0.165 OA
HETATM    5  N   UNK     0     177.063 156.185 145.846  0.00  0.00    -0.222 NA
HETATM    6  N   UNK     0     173.735 156.295 146.792  0.00  0.00    -0.217 NA
HETATM    7  C   UNK     0     174.942 157.443 144.571  0.00  0.00     0.011 A 
HETATM    8  C   UNK     0     173.748 157.117 145.489  0.00  0.00     0.077 A 
HETATM    9  C   UNK     0     176.416 157.029 144.730  0.00  0.00     0.059 A 
HETATM   10  C   UNK     0     172.389 157.687 145.045  0.00  0.00     0.001 A 
HETATM   11  C   UNK     0     174.913 155.597 147.499  0.00  0.00     0.257 A 
HETATM   12  C   UNK     0     174.466 158.333 143.325  0.00  0.00     0.059 A 
HETATM   13  C   UNK     0     176.393 155.548 147.078  0.00  0.00     0.257 A 
HETATM   14  C   UNK     0     177.517 157.476 143.653  0.00  0.00     0.048 A 
HETATM   15  C   UNK     0     175.540 158.797 142.229  0.00  0.00     0.128 A 
HETATM   16  C   UNK     0     177.076 158.366 142.394  0.00  0.00     0.036 A 
HETATM   17  C   UNK     0     172.288 158.524 143.756  0.00  0.00     0.019 A 
HETATM   18  C   UNK     0     171.129 157.420 145.891  0.00  0.00     0.028 A 
HETATM   19  C   UNK     0     170.928 159.094 143.312  0.00  0.00     0.036 A 
HETATM   20  C   UNK     0     169.769 157.990 145.447  0.00  0.00     0.005 A 
HETATM   21  C   UNK     0     169.669 158.827 144.158  0.00  0.00     0.006 A 
ENDROOT
TORSDOF 0
ENDMDL
MODEL 7
REMARK VINA RESULT:      -7.8     25.387     27.902
REMARK  0 active torsions:
REMARK  status: ('A' for Active; 'I' for Inactive)
ROOT
HETATM    1 Cl   UNK     0     175.191 154.513 149.267  0.00  0.00    -0.100 Cl
HETATM    2 Cl   UNK     0     174.755 155.943 147.152  0.00  0.00    -0.158 Cl
HETATM    3  O   UNK     0     178.867 158.316 141.798  0.00  0.00    -0.165 OA
HETATM    4  O   UNK     0     181.027 156.962 143.131  0.00  0.00    -0.165 OA
HETATM    5  N   UNK     0     179.615 156.050 145.124  0.00  0.00    -0.222 NA
HETATM    6  N   UNK     0     177.016 157.679 143.520  0.00  0.00    -0.217 NA
HETATM    7  C   UNK     0     176.949 156.216 145.878  0.00  0.00     0.011 A 
HETATM    8  C   UNK     0     176.328 157.069 144.756  0.00  0.00     0.077 A 
HETATM    9  C   UNK     0     178.411 155.763 146.042  0.00  0.00     0.059 A 
HETATM   10  C   UNK     0     174.819 157.349 144.887  0.00  0.00     0.001 A 
HETATM   11  C   UNK     0     178.496 157.587 143.102  0.00  0.00     0.257 A 
HETATM   12  C   UNK     0     175.835 155.808 146.956  0.00  0.00     0.059 A 
HETATM   13  C   UNK     0     179.652 156.862 143.816  0.00  0.00     0.257 A 
HETATM   14  C   UNK     0     178.861 154.869 147.296  0.00  0.00     0.048 A 
HETATM   15  C   UNK     0     176.248 154.914 148.222  0.00  0.00     0.128 A 
HETATM   16  C   UNK     0     177.772 154.442 148.393  0.00  0.00     0.036 A 
HETATM   17  C   UNK     0     174.032 156.786 146.085  0.00  0.00     0.019 A 
HETATM   18  C   UNK     0     174.097 158.192 143.818  0.00  0.00     0.028 A 
HETATM   19  C   UNK     0     172.523 157.066 146.215  0.00  0.00     0.036 A 
HETATM   20  C   UNK     0     172.588 158.472 143.949  0.00  0.00     0.005 A 
HETATM   21  C   UNK     0     171.802 157.909 145.147  0.00  0.00     0.006 A 
ENDROOT
TORSDOF 0
ENDMDL
MODEL 8
REMARK VINA RESULT:      -7.6     27.336     29.303
REMARK  0 active torsions:
REMARK  status: ('A' for Active; 'I' for Inactive)
ROOT
HETATM    1 Cl   UNK     0     168.790 151.542 160.146  0.00  0.00    -0.100 Cl
HETATM    2 Cl   UNK     0     169.149 151.314 162.701  0.00  0.00    -0.158 Cl
HETATM    3  O   UNK     0     174.219 148.335 166.780  0.00  0.00    -0.165 OA
HETATM    4  O   UNK     0     175.495 147.612 164.306  0.00  0.00    -0.165 OA
HETATM    5  N   UNK     0     173.702 148.666 162.733  0.00  0.00    -0.222 NA
HETATM    6  N   UNK     0     172.167 149.536 165.710  0.00  0.00    -0.217 NA
HETATM    7  C   UNK     0     171.325 150.046 163.114  0.00  0.00     0.011 A 
HETATM    8  C   UNK     0     171.205 150.104 164.649  0.00  0.00     0.077 A 
HETATM    9  C   UNK     0     172.436 149.406 162.262  0.00  0.00     0.059 A 
HETATM   10  C   UNK     0     169.958 150.824 165.195  0.00  0.00     0.001 A 
HETATM   11  C   UNK     0     173.486 148.770 165.497  0.00  0.00     0.257 A 
HETATM   12  C   UNK     0     170.076 150.777 162.425  0.00  0.00     0.059 A 
HETATM   13  C   UNK     0     174.170 148.383 164.172  0.00  0.00     0.257 A 
HETATM   14  C   UNK     0     172.375 149.454 160.660  0.00  0.00     0.048 A 
HETATM   15  C   UNK     0     169.982 150.844 160.825  0.00  0.00     0.128 A 
HETATM   16  C   UNK     0     171.140 150.178 159.937  0.00  0.00     0.036 A 
HETATM   17  C   UNK     0     168.930 151.430 164.221  0.00  0.00     0.019 A 
HETATM   18  C   UNK     0     169.739 150.940 166.716  0.00  0.00     0.028 A 
HETATM   19  C   UNK     0     167.683 152.150 164.768  0.00  0.00     0.036 A 
HETATM   20  C   UNK     0     168.493 151.660 167.262  0.00  0.00     0.005 A 
HETATM   21  C   UNK     0     167.465 152.265 166.287  0.00  0.00     0.006 A 
ENDROOT
TORSDOF 0
ENDMDL
MODEL 9
REMARK VINA RESULT:      -7.5     18.208     20.966
REMARK  0 active torsions:
REMARK  status: ('A' for Active; 'I' for Inactive)
ROOT
HETATM    1 Cl   UNK     0     151.600 171.333 147.534  0.00  0.00    -0.100 Cl
HETATM    2 Cl   UNK     0     151.232 170.699 150.019  0.00  0.00    -0.158 Cl
HETATM    3  O   UNK     0     151.477 164.561 153.689  0.00  0.00    -0.165 OA
HETATM    4  O   UNK     0     152.134 163.324 151.178  0.00  0.00    -0.165 OA
HETATM    5  N   UNK     0     152.070 165.505 149.751  0.00  0.00    -0.222 NA
HETATM    6  N   UNK     0     151.279 166.994 152.774  0.00  0.00    -0.217 NA
HETATM    7  C   UNK     0     151.565 168.182 150.281  0.00  0.00     0.011 A 
HETATM    8  C   UNK     0     151.281 168.184 151.796  0.00  0.00     0.077 A 
HETATM    9  C   UNK     0     151.915 166.991 149.372  0.00  0.00     0.059 A 
HETATM   10  C   UNK     0     150.958 169.557 152.413  0.00  0.00     0.001 A 
HETATM   11  C   UNK     0     151.560 165.508 152.478  0.00  0.00     0.257 A 
HETATM   12  C   UNK     0     151.451 169.667 149.686  0.00  0.00     0.059 A 
HETATM   13  C   UNK     0     151.912 164.846 151.133  0.00  0.00     0.257 A 
HETATM   14  C   UNK     0     152.177 167.201 147.803  0.00  0.00     0.048 A 
HETATM   15  C   UNK     0     151.705 169.914 148.122  0.00  0.00     0.128 A 
HETATM   16  C   UNK     0     152.071 168.673 147.175  0.00  0.00     0.036 A 
HETATM   17  C   UNK     0     150.933 170.815 151.525  0.00  0.00     0.019 A 
HETATM   18  C   UNK     0     150.659 169.672 153.920  0.00  0.00     0.028 A 
HETATM   19  C   UNK     0     150.609 172.188 152.143  0.00  0.00     0.036 A 
HETATM   20  C   UNK     0     150.335 171.045 154.538  0.00  0.00     0.005 A 
HETATM   21  C   UNK     0     150.310 172.303 153.649  0.00  0.00     0.006 A 
ENDROOT
TORSDOF 0
ENDMDL
MODEL 10
REMARK VINA RESULT:      -7.3     17.531     20.261
REMARK  0 active torsions:
REMARK  status: ('A' for Active; 'I' for Inactive)
ROOT
HETATM    1 Cl   UNK     0     149.878 168.120 155.335  0.00  0.00    -0.100 Cl
HETATM    2 Cl   UNK     0     150.797 166.750 153.337  0.00  0.00    -0.158 Cl
HETATM    3  O   UNK     0     152.568 168.343 146.590  0.00  0.00    -0.165 OA
HETATM    4  O   UNK     0     151.790 171.035 147.238  0.00  0.00    -0.165 OA
HETATM    5  N   UNK     0     151.117 170.558 149.712  0.00  0.00    -0.222 NA
HETATM    6  N   UNK     0     152.054 167.318 148.931  0.00  0.00    -0.217 NA
HETATM    7  C   UNK     0     151.089 168.309 151.338  0.00  0.00     0.011 A 
HETATM    8  C   UNK     0     151.618 167.204 150.404  0.00  0.00     0.077 A 
HETATM    9  C   UNK     0     150.867 169.801 151.030  0.00  0.00     0.059 A 
HETATM   10  C   UNK     0     151.724 165.799 151.025  0.00  0.00     0.001 A 
HETATM   11  C   UNK     0     152.070 168.567 148.029  0.00  0.00     0.257 A 
HETATM   12  C   UNK     0     150.763 167.710 152.789  0.00  0.00     0.059 A 
HETATM   13  C   UNK     0     151.653 170.008 148.376  0.00  0.00     0.257 A 
HETATM   14  C   UNK     0     150.302 170.798 152.152  0.00  0.00     0.048 A 
HETATM   15  C   UNK     0     150.197 168.678 153.936  0.00  0.00     0.128 A 
HETATM   16  C   UNK     0     149.965 170.233 153.615  0.00  0.00     0.036 A 
HETATM   17  C   UNK     0     151.313 165.571 152.492  0.00  0.00     0.019 A 
HETATM   18  C   UNK     0     152.241 164.620 150.179  0.00  0.00     0.028 A 
HETATM   19  C   UNK     0     151.420 164.166 153.113  0.00  0.00     0.036 A 
HETATM   20  C   UNK     0     152.347 163.214 150.799  0.00  0.00     0.005 A 
HETATM   21  C   UNK     0     151.937 162.988 152.266  0.00  0.00     0.006 A 
ENDROOT
TORSDOF 0
ENDMDL
