MODEL 1
REMARK VINA RESULT:      -8.8      0.000      0.000
REMARK  1 active torsions:
REMARK  status: ('A' for Active; 'I' for Inactive)
REMARK    1  A    between atoms: C_10  and  C_15 
ROOT
HETATM    1 Cl   UNK     0     149.926 142.921 141.523  0.00  0.00    -0.091 Cl
HETATM    2  N   UNK     0     150.129 148.246 144.796  0.00  0.00    -0.300 N 
HETATM    3  N   UNK     0     146.834 148.554 143.781  0.00  0.00    -0.243 NA
HETATM    4  N   UNK     0     151.277 149.918 146.219  0.00  0.00    -0.251 NA
HETATM    5  C   UNK     0     149.910 146.975 143.953  0.00  0.00     0.040 A 
HETATM    6  C   UNK     0     149.129 149.374 145.110  0.00  0.00     0.086 A 
HETATM    7  C   UNK     0     148.636 146.520 143.215  0.00  0.00     0.012 A 
HETATM    8  C   UNK     0     147.663 149.511 144.658  0.00  0.00     0.114 A 
HETATM    9  C   UNK     0     147.267 147.223 143.139  0.00  0.00     0.077 A 
HETATM   10  C   UNK     0     151.453 148.587 145.483  0.00  0.00     0.120 A 
HETATM   11  C   UNK     0     149.844 150.403 145.988  0.00  0.00     0.172 A 
HETATM   12  C   UNK     0     151.247 146.091 143.909  0.00  0.00     0.049 A 
HETATM   13  C   UNK     0     148.612 145.149 142.383  0.00  0.00     0.062 A 
HETATM   14  C   UNK     0     152.738 147.739 145.442  0.00  0.00     0.072 C 
HETATM   15  C   UNK     0     151.258 144.714 143.086  0.00  0.00     0.040 A 
HETATM   16  C   UNK     0     149.932 144.240 142.318  0.00  0.00     0.018 A 
ENDROOT
BRANCH   9  17
HETATM   17  C   UNK     0     146.190 146.498 142.311  0.00  0.00     0.018 A 
HETATM   18  C   UNK     0     145.968 146.880 140.835  0.00  0.00     0.115 A 
HETATM   19  F   UNK     0     146.822 147.986 140.189  0.00  0.00    -0.209 F 
HETATM   20  C   UNK     0     144.891 146.156 140.007  0.00  0.00     0.056 A 
HETATM   21  C   UNK     0     144.036 145.049 140.654  0.00  0.00     0.007 A 
HETATM   22  C   UNK     0     144.259 144.668 142.128  0.00  0.00     0.005 A 
HETATM   23  C   UNK     0     145.336 145.393 142.958  0.00  0.00     0.030 A 
ENDBRANCH   9  17
TORSDOF 1
ENDMDL
MODEL 2
REMARK VINA RESULT:      -7.8     27.129     30.837
REMARK  1 active torsions:
REMARK  status: ('A' for Active; 'I' for Inactive)
REMARK    1  A    between atoms: C_10  and  C_15 
ROOT
HETATM    1 Cl   UNK     0     175.689 153.777 149.969  0.00  0.00    -0.091 Cl
HETATM    2  N   UNK     0     174.976 157.326 144.869  0.00  0.00    -0.300 N 
HETATM    3  N   UNK     0     178.408 156.970 144.602  0.00  0.00    -0.243 NA
HETATM    4  N   UNK     0     173.612 158.625 143.259  0.00  0.00    -0.251 NA
HETATM    5  C   UNK     0     175.325 156.450 146.087  0.00  0.00     0.040 A 
HETATM    6  C   UNK     0     175.920 157.901 143.798  0.00  0.00     0.086 A 
HETATM    7  C   UNK     0     176.706 155.933 146.534  0.00  0.00     0.012 A 
HETATM    8  C   UNK     0     177.448 157.742 143.678  0.00  0.00     0.114 A 
HETATM    9  C   UNK     0     178.078 156.165 145.872  0.00  0.00     0.077 A 
HETATM   10  C   UNK     0     173.553 157.776 144.532  0.00  0.00     0.120 A 
HETATM   11  C   UNK     0     175.072 158.701 142.806  0.00  0.00     0.172 A 
HETATM   12  C   UNK     0     174.003 156.094 146.923  0.00  0.00     0.049 A 
HETATM   13  C   UNK     0     176.860 155.024 147.847  0.00  0.00     0.062 A 
HETATM   14  C   UNK     0     172.283 157.435 145.332  0.00  0.00     0.072 C 
HETATM   15  C   UNK     0     174.121 155.187 148.241  0.00  0.00     0.040 A 
HETATM   16  C   UNK     0     175.559 154.649 148.706  0.00  0.00     0.018 A 
ENDROOT
BRANCH   9  17
HETATM   17  C   UNK     0     179.278 155.503 146.575  0.00  0.00     0.018 A 
HETATM   18  C   UNK     0     180.093 156.296 147.615  0.00  0.00     0.115 A 
HETATM   19  F   UNK     0     179.709 157.749 147.950  0.00  0.00    -0.209 F 
HETATM   20  C   UNK     0     181.293 155.635 148.318  0.00  0.00     0.056 A 
HETATM   21  C   UNK     0     181.678 154.182 147.983  0.00  0.00     0.007 A 
HETATM   22  C   UNK     0     180.863 153.390 146.944  0.00  0.00     0.005 A 
HETATM   23  C   UNK     0     179.662 154.051 146.240  0.00  0.00     0.030 A 
ENDBRANCH   9  17
TORSDOF 1
ENDMDL
MODEL 3
REMARK VINA RESULT:      -7.0     12.126     15.223
REMARK  1 active torsions:
REMARK  status: ('A' for Active; 'I' for Inactive)
REMARK    1  A    between atoms: C_10  and  C_15 
ROOT
HETATM    1 Cl   UNK     0     147.631 158.353 150.028  0.00  0.00    -0.091 Cl
HETATM    2  N   UNK     0     153.162 155.842 151.513  0.00  0.00    -0.300 N 
HETATM    3  N   UNK     0     154.228 159.134 151.529  0.00  0.00    -0.243 NA
HETATM    4  N   UNK     0     154.654 153.925 152.003  0.00  0.00    -0.251 NA
HETATM    5  C   UNK     0     151.881 156.618 151.155  0.00  0.00     0.040 A 
HETATM    6  C   UNK     0     154.569 156.393 151.806  0.00  0.00     0.086 A 
HETATM    7  C   UNK     0     151.691 158.140 151.001  0.00  0.00     0.012 A 
HETATM    8  C   UNK     0     155.044 157.859 151.813  0.00  0.00     0.114 A 
HETATM    9  C   UNK     0     152.736 159.259 151.168  0.00  0.00     0.077 A 
HETATM   10  C   UNK     0     153.220 154.317 151.636  0.00  0.00     0.120 A 
HETATM   11  C   UNK     0     155.486 155.205 152.107  0.00  0.00     0.172 A 
HETATM   12  C   UNK     0     150.653 155.610 150.938  0.00  0.00     0.049 A 
HETATM   13  C   UNK     0     150.261 158.756 150.619  0.00  0.00     0.062 A 
HETATM   14  C   UNK     0     152.043 153.348 151.428  0.00  0.00     0.072 C 
HETATM   15  C   UNK     0     149.208 156.192 150.555  0.00  0.00     0.040 A 
HETATM   16  C   UNK     0     149.011 157.776 150.395  0.00  0.00     0.018 A 
ENDROOT
BRANCH   9  17
HETATM   17  C   UNK     0     152.220 160.692 150.943  0.00  0.00     0.018 A 
HETATM   18  C   UNK     0     152.194 161.287 149.522  0.00  0.00     0.115 A 
HETATM   19  F   UNK     0     152.685 160.448 148.327  0.00  0.00    -0.209 F 
HETATM   20  C   UNK     0     151.678 162.719 149.296  0.00  0.00     0.056 A 
HETATM   21  C   UNK     0     151.188 163.558 150.491  0.00  0.00     0.007 A 
HETATM   22  C   UNK     0     151.214 162.964 151.911  0.00  0.00     0.005 A 
HETATM   23  C   UNK     0     151.730 161.530 152.137  0.00  0.00     0.030 A 
ENDBRANCH   9  17
TORSDOF 1
ENDMDL
MODEL 4
REMARK VINA RESULT:      -7.0     23.170     26.029
REMARK  1 active torsions:
REMARK  status: ('A' for Active; 'I' for Inactive)
REMARK    1  A    between atoms: C_10  and  C_15 
ROOT
HETATM    1 Cl   UNK     0     172.067 161.535 139.704  0.00  0.00    -0.091 Cl
HETATM    2  N   UNK     0     173.356 157.845 144.586  0.00  0.00    -0.300 N 
HETATM    3  N   UNK     0     169.935 157.964 145.098  0.00  0.00    -0.243 NA
HETATM    4  N   UNK     0     174.908 156.577 146.043  0.00  0.00    -0.251 NA
HETATM    5  C   UNK     0     172.868 158.742 143.433  0.00  0.00     0.040 A 
HETATM    6  C   UNK     0     172.527 157.168 145.692  0.00  0.00     0.086 A 
HETATM    7  C   UNK     0     171.429 159.185 143.103  0.00  0.00     0.012 A 
HETATM    8  C   UNK     0     171.004 157.221 145.921  0.00  0.00     0.114 A 
HETATM    9  C   UNK     0     170.125 158.838 143.844  0.00  0.00     0.077 A 
HETATM   10  C   UNK     0     174.825 157.476 144.807  0.00  0.00     0.120 A 
HETATM   11  C   UNK     0     173.491 156.387 146.589  0.00  0.00     0.172 A 
HETATM   12  C   UNK     0     174.103 159.217 142.526  0.00  0.00     0.049 A 
HETATM   13  C   UNK     0     171.128 160.132 141.844  0.00  0.00     0.062 A 
HETATM   14  C   UNK     0     176.012 157.931 143.938  0.00  0.00     0.072 C 
HETATM   15  C   UNK     0     173.838 160.164 141.260  0.00  0.00     0.040 A 
HETATM   16  C   UNK     0     172.340 160.625 140.916  0.00  0.00     0.018 A 
ENDROOT
BRANCH   9  17
HETATM   17  C   UNK     0     168.840 159.446 143.253  0.00  0.00     0.018 A 
HETATM   18  C   UNK     0     168.156 158.776 142.045  0.00  0.00     0.115 A 
HETATM   19  F   UNK     0     168.758 157.498 141.431  0.00  0.00    -0.209 F 
HETATM   20  C   UNK     0     166.871 159.383 141.453  0.00  0.00     0.056 A 
HETATM   21  C   UNK     0     166.269 160.661 142.068  0.00  0.00     0.007 A 
HETATM   22  C   UNK     0     166.952 161.330 143.274  0.00  0.00     0.005 A 
HETATM   23  C   UNK     0     168.238 160.723 143.867  0.00  0.00     0.030 A 
ENDBRANCH   9  17
TORSDOF 1
ENDMDL
MODEL 5
REMARK VINA RESULT:      -6.9     18.622     20.912
REMARK  1 active torsions:
REMARK  status: ('A' for Active; 'I' for Inactive)
REMARK    1  A    between atoms: C_10  and  C_15 
ROOT
HETATM    1 Cl   UNK     0     166.789 162.180 136.495  0.00  0.00    -0.091 Cl
HETATM    2  N   UNK     0     161.703 160.515 139.730  0.00  0.00    -0.300 N 
HETATM    3  N   UNK     0     160.592 159.357 136.664  0.00  0.00    -0.243 NA
HETATM    4  N   UNK     0     160.373 160.341 141.814  0.00  0.00    -0.251 NA
HETATM    5  C   UNK     0     162.874 160.858 138.790  0.00  0.00     0.040 A 
HETATM    6  C   UNK     0     160.368 159.828 139.390  0.00  0.00     0.086 A 
HETATM    7  C   UNK     0     162.999 160.597 137.277  0.00  0.00     0.012 A 
HETATM    8  C   UNK     0     159.873 159.312 138.025  0.00  0.00     0.114 A 
HETATM    9  C   UNK     0     161.983 159.929 136.331  0.00  0.00     0.077 A 
HETATM   10  C   UNK     0     161.700 160.830 141.228  0.00  0.00     0.120 A 
HETATM   11  C   UNK     0     159.552 159.723 140.681  0.00  0.00     0.172 A 
HETATM   12  C   UNK     0     164.057 161.574 139.603  0.00  0.00     0.049 A 
HETATM   13  C   UNK     0     164.315 161.034 136.472  0.00  0.00     0.062 A 
HETATM   14  C   UNK     0     162.835 161.517 142.009  0.00  0.00     0.072 C 
HETATM   15  C   UNK     0     165.388 162.025 138.829  0.00  0.00     0.040 A 
HETATM   16  C   UNK     0     165.518 161.753 137.253  0.00  0.00     0.018 A 
ENDROOT
BRANCH   9  17
HETATM   17  C   UNK     0     162.417 159.818 134.858  0.00  0.00     0.018 A 
HETATM   18  C   UNK     0     163.017 158.501 134.329  0.00  0.00     0.115 A 
HETATM   19  F   UNK     0     163.182 157.296 135.273  0.00  0.00    -0.209 F 
HETATM   20  C   UNK     0     163.450 158.390 132.856  0.00  0.00     0.056 A 
HETATM   21  C   UNK     0     163.284 159.596 131.911  0.00  0.00     0.007 A 
HETATM   22  C   UNK     0     162.685 160.911 132.440  0.00  0.00     0.005 A 
HETATM   23  C   UNK     0     162.251 161.023 133.914  0.00  0.00     0.030 A 
ENDBRANCH   9  17
TORSDOF 1
ENDMDL
MODEL 6
REMARK VINA RESULT:      -6.9      2.451      2.972
REMARK  1 active torsions:
REMARK  status: ('A' for Active; 'I' for Inactive)
REMARK    1  A    between atoms: C_10  and  C_15 
ROOT
HETATM    1 Cl   UNK     0     149.974 141.077 141.092  0.00  0.00    -0.091 Cl
HETATM    2  N   UNK     0     149.323 147.207 142.141  0.00  0.00    -0.300 N 
HETATM    3  N   UNK     0     145.942 146.506 141.907  0.00  0.00    -0.243 NA
HETATM    4  N   UNK     0     150.216 149.480 142.568  0.00  0.00    -0.251 NA
HETATM    5  C   UNK     0     149.306 145.690 141.876  0.00  0.00     0.040 A 
HETATM    6  C   UNK     0     148.131 148.173 142.271  0.00  0.00     0.086 A 
HETATM    7  C   UNK     0     148.091 144.764 141.673  0.00  0.00     0.012 A 
HETATM    8  C   UNK     0     146.626 147.861 142.166  0.00  0.00     0.114 A 
HETATM    9  C   UNK     0     146.594 145.128 141.687  0.00  0.00     0.077 A 
HETATM   10  C   UNK     0     150.607 148.019 142.326  0.00  0.00     0.120 A 
HETATM   11  C   UNK     0     148.689 149.574 142.534  0.00  0.00     0.172 A 
HETATM   12  C   UNK     0     150.800 145.110 141.824  0.00  0.00     0.049 A 
HETATM   13  C   UNK     0     148.287 143.195 141.406  0.00  0.00     0.062 A 
HETATM   14  C   UNK     0     152.043 147.464 142.277  0.00  0.00     0.072 C 
HETATM   15  C   UNK     0     151.033 143.546 141.558  0.00  0.00     0.040 A 
HETATM   16  C   UNK     0     149.768 142.582 141.348  0.00  0.00     0.018 A 
ENDROOT
BRANCH   9  17
HETATM   17  C   UNK     0     145.621 143.958 141.451  0.00  0.00     0.018 A 
HETATM   18  C   UNK     0     145.219 143.570 140.015  0.00  0.00     0.115 A 
HETATM   19  F   UNK     0     145.790 144.353 138.817  0.00  0.00    -0.209 F 
HETATM   20  C   UNK     0     144.247 142.401 139.777  0.00  0.00     0.056 A 
HETATM   21  C   UNK     0     143.676 141.618 140.975  0.00  0.00     0.007 A 
HETATM   22  C   UNK     0     144.078 142.006 142.409  0.00  0.00     0.005 A 
HETATM   23  C   UNK     0     145.051 143.176 142.647  0.00  0.00     0.030 A 
ENDBRANCH   9  17
TORSDOF 1
ENDMDL
MODEL 7
REMARK VINA RESULT:      -6.8     37.994     40.420
REMARK  1 active torsions:
REMARK  status: ('A' for Active; 'I' for Inactive)
REMARK    1  A    between atoms: C_10  and  C_15 
ROOT
HETATM    1 Cl   UNK     0     144.049 179.392 158.707  0.00  0.00    -0.091 Cl
HETATM    2  N   UNK     0     145.791 181.878 164.175  0.00  0.00    -0.300 N 
HETATM    3  N   UNK     0     142.864 183.696 163.852  0.00  0.00    -0.243 NA
HETATM    4  N   UNK     0     147.332 182.110 166.102  0.00  0.00    -0.251 NA
HETATM    5  C   UNK     0     145.219 181.371 162.837  0.00  0.00     0.040 A 
HETATM    6  C   UNK     0     145.206 182.933 165.131  0.00  0.00     0.086 A 
HETATM    7  C   UNK     0     143.919 181.795 162.126  0.00  0.00     0.012 A 
HETATM    8  C   UNK     0     143.903 183.742 164.988  0.00  0.00     0.114 A 
HETATM    9  C   UNK     0     142.871 182.830 162.579  0.00  0.00     0.077 A 
HETATM   10  C   UNK     0     147.104 181.373 164.778  0.00  0.00     0.120 A 
HETATM   11  C   UNK     0     146.161 183.071 166.319  0.00  0.00     0.172 A 
HETATM   12  C   UNK     0     146.185 180.264 162.194  0.00  0.00     0.049 A 
HETATM   13  C   UNK     0     143.497 181.141 160.725  0.00  0.00     0.062 A 
HETATM   14  C   UNK     0     148.033 180.311 164.163  0.00  0.00     0.072 C 
HETATM   15  C   UNK     0     145.793 179.589 160.793  0.00  0.00     0.040 A 
HETATM   16  C   UNK     0     144.440 180.030 160.053  0.00  0.00     0.018 A 
ENDROOT
BRANCH   9  17
HETATM   17  C   UNK     0     141.673 183.023 161.631  0.00  0.00     0.018 A 
HETATM   18  C   UNK     0     141.763 184.034 160.473  0.00  0.00     0.115 A 
HETATM   19  F   UNK     0     143.051 184.852 160.263  0.00  0.00    -0.209 F 
HETATM   20  C   UNK     0     140.565 184.228 159.525  0.00  0.00     0.056 A 
HETATM   21  C   UNK     0     139.277 183.410 159.735  0.00  0.00     0.007 A 
HETATM   22  C   UNK     0     139.187 182.399 160.893  0.00  0.00     0.005 A 
HETATM   23  C   UNK     0     140.386 182.205 161.841  0.00  0.00     0.030 A 
ENDBRANCH   9  17
TORSDOF 1
ENDMDL
MODEL 8
REMARK VINA RESULT:      -6.7     22.949     26.781
REMARK  1 active torsions:
REMARK  status: ('A' for Active; 'I' for Inactive)
REMARK    1  A    between atoms: C_10  and  C_15 
ROOT
HETATM    1 Cl   UNK     0     173.548 163.944 142.018  0.00  0.00    -0.091 Cl
HETATM    2  N   UNK     0     167.993 161.072 141.990  0.00  0.00    -0.300 N 
HETATM    3  N   UNK     0     169.855 158.279 142.833  0.00  0.00    -0.243 NA
HETATM    4  N   UNK     0     165.532 161.031 141.705  0.00  0.00    -0.251 NA
HETATM    5  C   UNK     0     169.431 161.621 142.040  0.00  0.00     0.040 A 
HETATM    6  C   UNK     0     167.505 159.635 142.251  0.00  0.00     0.086 A 
HETATM    7  C   UNK     0     170.736 160.869 142.364  0.00  0.00     0.012 A 
HETATM    8  C   UNK     0     168.334 158.392 142.626  0.00  0.00     0.114 A 
HETATM    9  C   UNK     0     170.925 159.381 142.716  0.00  0.00     0.077 A 
HETATM   10  C   UNK     0     166.771 161.929 141.654  0.00  0.00     0.120 A 
HETATM   11  C   UNK     0     165.985 159.617 142.073  0.00  0.00     0.172 A 
HETATM   12  C   UNK     0     169.448 163.188 141.695  0.00  0.00     0.049 A 
HETATM   13  C   UNK     0     172.147 161.631 142.363  0.00  0.00     0.062 A 
HETATM   14  C   UNK     0     166.785 163.433 141.322  0.00  0.00     0.072 C 
HETATM   15  C   UNK     0     170.842 163.981 141.686  0.00  0.00     0.040 A 
HETATM   16  C   UNK     0     172.201 163.197 142.022  0.00  0.00     0.018 A 
ENDROOT
BRANCH   9  17
HETATM   17  C   UNK     0     172.374 158.939 142.988  0.00  0.00     0.018 A 
HETATM   18  C   UNK     0     172.820 158.602 144.424  0.00  0.00     0.115 A 
HETATM   19  F   UNK     0     171.816 158.709 145.587  0.00  0.00    -0.209 F 
HETATM   20  C   UNK     0     174.269 158.160 144.696  0.00  0.00     0.056 A 
HETATM   21  C   UNK     0     175.273 158.053 143.533  0.00  0.00     0.007 A 
HETATM   22  C   UNK     0     174.828 158.389 142.099  0.00  0.00     0.005 A 
HETATM   23  C   UNK     0     173.378 158.832 141.826  0.00  0.00     0.030 A 
ENDBRANCH   9  17
TORSDOF 1
ENDMDL
MODEL 9
REMARK VINA RESULT:      -6.6     15.764     17.547
REMARK  1 active torsions:
REMARK  status: ('A' for Active; 'I' for Inactive)
REMARK    1  A    between atoms: C_10  and  C_15 
ROOT
HETATM    1 Cl   UNK     0     140.841 144.896 124.173  0.00  0.00    -0.091 Cl
HETATM    2  N   UNK     0     144.448 148.809 127.458  0.00  0.00    -0.300 N 
HETATM    3  N   UNK     0     141.431 149.905 128.751  0.00  0.00    -0.243 NA
HETATM    4  N   UNK     0     146.639 149.752 128.128  0.00  0.00    -0.251 NA
HETATM    5  C   UNK     0     143.421 147.920 126.731  0.00  0.00     0.040 A 
HETATM    6  C   UNK     0     144.195 149.912 128.501  0.00  0.00     0.086 A 
HETATM    7  C   UNK     0     141.886 147.916 126.869  0.00  0.00     0.012 A 
HETATM    8  C   UNK     0     142.852 150.400 129.077  0.00  0.00     0.114 A 
HETATM    9  C   UNK     0     141.001 148.800 127.768  0.00  0.00     0.077 A 
HETATM   10  C   UNK     0     145.958 148.714 127.231  0.00  0.00     0.120 A 
HETATM   11  C   UNK     0     145.551 150.490 128.911  0.00  0.00     0.172 A 
HETATM   12  C   UNK     0     144.160 146.910 125.728  0.00  0.00     0.049 A 
HETATM   13  C   UNK     0     140.986 146.901 126.014  0.00  0.00     0.062 A 
HETATM   14  C   UNK     0     146.670 147.745 126.269  0.00  0.00     0.072 C 
HETATM   15  C   UNK     0     143.290 145.881 124.858  0.00  0.00     0.040 A 
HETATM   16  C   UNK     0     141.692 145.877 125.001  0.00  0.00     0.018 A 
ENDROOT
BRANCH   9  17
HETATM   17  C   UNK     0     139.486 148.543 127.671  0.00  0.00     0.018 A 
HETATM   18  C   UNK     0     138.822 147.497 128.587  0.00  0.00     0.115 A 
HETATM   19  F   UNK     0     139.674 146.709 129.599  0.00  0.00    -0.209 F 
HETATM   20  C   UNK     0     137.307 147.240 128.490  0.00  0.00     0.056 A 
HETATM   21  C   UNK     0     136.455 148.028 127.477  0.00  0.00     0.007 A 
HETATM   22  C   UNK     0     137.119 149.073 126.562  0.00  0.00     0.005 A 
HETATM   23  C   UNK     0     138.634 149.331 126.659  0.00  0.00     0.030 A 
ENDBRANCH   9  17
TORSDOF 1
ENDMDL
MODEL 10
REMARK VINA RESULT:      -6.5     18.474     20.544
REMARK  1 active torsions:
REMARK  status: ('A' for Active; 'I' for Inactive)
REMARK    1  A    between atoms: C_10  and  C_15 
ROOT
HETATM    1 Cl   UNK     0     167.713 158.782 138.575  0.00  0.00    -0.091 Cl
HETATM    2  N   UNK     0     163.169 156.604 134.871  0.00  0.00    -0.300 N 
HETATM    3  N   UNK     0     161.080 158.120 137.176  0.00  0.00    -0.243 NA
HETATM    4  N   UNK     0     162.341 155.382 132.880  0.00  0.00    -0.251 NA
HETATM    5  C   UNK     0     164.159 157.209 135.885  0.00  0.00     0.040 A 
HETATM    6  C   UNK     0     161.631 156.661 134.880  0.00  0.00     0.086 A 
HETATM    7  C   UNK     0     163.853 158.019 137.159  0.00  0.00     0.012 A 
HETATM    8  C   UNK     0     160.700 157.336 135.906  0.00  0.00     0.114 A 
HETATM    9  C   UNK     0     162.483 158.425 137.733  0.00  0.00     0.077 A 
HETATM   10  C   UNK     0     163.602 155.814 133.634  0.00  0.00     0.120 A 
HETATM   11  C   UNK     0     161.126 155.904 133.649  0.00  0.00     0.172 A 
HETATM   12  C   UNK     0     165.671 156.889 135.455  0.00  0.00     0.049 A 
HETATM   13  C   UNK     0     165.039 158.565 138.091  0.00  0.00     0.062 A 
HETATM   14  C   UNK     0     165.053 155.506 133.220  0.00  0.00     0.072 C 
HETATM   15  C   UNK     0     166.881 157.420 136.364  0.00  0.00     0.040 A 
HETATM   16  C   UNK     0     166.563 158.264 137.691  0.00  0.00     0.018 A 
ENDROOT
BRANCH   9  17
HETATM   17  C   UNK     0     162.522 159.242 139.037  0.00  0.00     0.018 A 
HETATM   18  C   UNK     0     162.554 160.782 138.980  0.00  0.00     0.115 A 
HETATM   19  F   UNK     0     162.547 161.502 137.618  0.00  0.00    -0.209 F 
HETATM   20  C   UNK     0     162.592 161.600 140.283  0.00  0.00     0.056 A 
HETATM   21  C   UNK     0     162.599 160.880 141.645  0.00  0.00     0.007 A 
HETATM   22  C   UNK     0     162.567 159.342 141.702  0.00  0.00     0.005 A 
HETATM   23  C   UNK     0     162.528 158.523 140.398  0.00  0.00     0.030 A 
ENDBRANCH   9  17
TORSDOF 1
ENDMDL
