MODEL 1
REMARK VINA RESULT:      -8.2      0.000      0.000
REMARK  7 active torsions:
REMARK  status: ('A' for Active; 'I' for Inactive)
REMARK    1  A    between atoms: O_1  and  C_16 
REMARK    2  A    between atoms: O_1  and  C_24 
REMARK    3  A    between atoms: O_2  and  C_18 
REMARK    4  A    between atoms: O_2  and  C_26 
REMARK    5  A    between atoms: O_5  and  C_29 
REMARK    6  A    between atoms: N_9  and  C_22 
REMARK    7  A    between atoms: C_26  and  C_29 
ROOT
HETATM    1  O   UNK     0     152.478 144.141 143.220  0.00  0.00    -0.290 OA
HETATM    2  O   UNK     0     150.110 148.886 142.639  0.00  0.00    -0.284 OA
HETATM    3  N   UNK     0     147.506 144.424 141.309  0.00  0.00    -0.254 NA
HETATM    4  C   UNK     0     150.032 145.817 142.390  0.00  0.00     0.014 A 
HETATM    5  C   UNK     0     149.992 144.283 142.265  0.00  0.00     0.060 A 
HETATM    6  C   UNK     0     148.808 146.655 141.974  0.00  0.00     0.060 A 
HETATM    7  C   UNK     0     151.294 146.513 142.930  0.00  0.00     0.043 A 
HETATM    8  C   UNK     0     148.729 143.587 141.724  0.00  0.00     0.063 A 
HETATM    9  C   UNK     0     147.545 145.959 141.434  0.00  0.00     0.063 A 
HETATM   10  C   UNK     0     151.215 143.445 142.680  0.00  0.00     0.200 A 
HETATM   11  C   UNK     0     151.333 148.048 143.055  0.00  0.00     0.121 A 
HETATM   12  C   UNK     0     148.847 148.190 142.099  0.00  0.00     0.200 A 
HETATM   13  C   UNK     0     152.517 145.676 143.345  0.00  0.00     0.082 A 
HETATM   14  C   UNK     0     148.690 142.052 141.599  0.00  0.00     0.052 C 
HETATM   15  C   UNK     0     146.322 146.797 141.018  0.00  0.00     0.052 C 
HETATM   16  C   UNK     0     152.596 148.744 143.595  0.00  0.00     0.127 A 
HETATM   17  C   UNK     0     153.780 146.372 143.886  0.00  0.00     0.058 A 
HETATM   18  C   UNK     0     153.820 147.906 144.011  0.00  0.00     0.059 A 
ENDROOT
BRANCH  12  19
HETATM   19  O   UNK     0     147.624 149.028 141.683  0.00  0.00    -0.308 OA
BRANCH  19  20
HETATM   20  C   UNK     0     146.723 149.661 142.760  0.00  0.00     0.183 C 
BRANCH  20  21
HETATM   21  C   UNK     0     147.230 149.793 144.208  0.00  0.00     0.175 C 
BRANCH  21  22
HETATM   22  O   UNK     0     147.177 148.581 145.156  0.00  0.00    -0.349 OA
HETATM   23  C   UNK     0     148.480 147.989 145.725  0.00  0.00     0.174 C 
ENDBRANCH  21  22
ENDBRANCH  20  21
ENDBRANCH  19  20
ENDBRANCH  12  19
BRANCH  16  24
HETATM   24  N   UNK     0     152.635 150.279 143.720  0.00  0.00    -0.116 N 
HETATM   25  O   UNK     0     152.989 151.142 142.495  0.00  0.00    -0.532 OA
HETATM   26  O   UNK     0     152.321 150.951 145.070  0.00  0.00    -0.532 OA
ENDBRANCH  16  24
BRANCH  10  27
HETATM   27  O   UNK     0     151.176 141.911 142.555  0.00  0.00    -0.313 OA
BRANCH  27  28
HETATM   28  C   UNK     0     152.466 141.090 142.739  0.00  0.00     0.124 C 
HETATM   29  C   UNK     0     153.355 140.769 141.523  0.00  0.00     0.033 C 
HETATM   30  C   UNK     0     152.867 140.590 144.140  0.00  0.00     0.033 C 
ENDBRANCH  27  28
ENDBRANCH  10  27
TORSDOF 7
ENDMDL
MODEL 2
REMARK VINA RESULT:      -7.9      2.702      8.392
REMARK  7 active torsions:
REMARK  status: ('A' for Active; 'I' for Inactive)
REMARK    1  A    between atoms: O_1  and  C_16 
REMARK    2  A    between atoms: O_1  and  C_24 
REMARK    3  A    between atoms: O_2  and  C_18 
REMARK    4  A    between atoms: O_2  and  C_26 
REMARK    5  A    between atoms: O_5  and  C_29 
REMARK    6  A    between atoms: N_9  and  C_22 
REMARK    7  A    between atoms: C_26  and  C_29 
ROOT
HETATM    1  O   UNK     0     147.652 151.031 144.827  0.00  0.00    -0.290 OA
HETATM    2  O   UNK     0     150.017 146.935 142.360  0.00  0.00    -0.284 OA
HETATM    3  N   UNK     0     152.539 149.487 146.308  0.00  0.00    -0.254 NA
HETATM    4  C   UNK     0     150.069 149.151 144.498  0.00  0.00     0.014 A 
HETATM    5  C   UNK     0     150.095 150.259 145.567  0.00  0.00     0.060 A 
HETATM    6  C   UNK     0     151.278 148.211 144.334  0.00  0.00     0.060 A 
HETATM    7  C   UNK     0     148.834 148.983 143.594  0.00  0.00     0.043 A 
HETATM    8  C   UNK     0     151.330 150.427 146.472  0.00  0.00     0.063 A 
HETATM    9  C   UNK     0     152.513 148.379 145.238  0.00  0.00     0.063 A 
HETATM   10  C   UNK     0     148.886 151.199 145.732  0.00  0.00     0.200 A 
HETATM   11  C   UNK     0     148.808 147.875 142.524  0.00  0.00     0.121 A 
HETATM   12  C   UNK     0     151.252 147.103 143.264  0.00  0.00     0.200 A 
HETATM   13  C   UNK     0     147.626 149.923 143.758  0.00  0.00     0.082 A 
HETATM   14  C   UNK     0     151.356 151.535 147.541  0.00  0.00     0.052 C 
HETATM   15  C   UNK     0     153.721 147.439 145.074  0.00  0.00     0.052 C 
HETATM   16  C   UNK     0     147.573 147.707 141.620  0.00  0.00     0.127 A 
HETATM   17  C   UNK     0     146.391 149.755 142.853  0.00  0.00     0.058 A 
HETATM   18  C   UNK     0     146.364 148.647 141.784  0.00  0.00     0.059 A 
ENDROOT
BRANCH  12  19
HETATM   19  O   UNK     0     152.460 146.163 143.100  0.00  0.00    -0.308 OA
BRANCH  19  20
HETATM   20  C   UNK     0     152.302 144.653 143.356  0.00  0.00     0.183 C 
BRANCH  20  21
HETATM   21  C   UNK     0     151.544 143.775 142.341  0.00  0.00     0.175 C 
BRANCH  21  22
HETATM   22  O   UNK     0     151.831 142.264 142.264  0.00  0.00    -0.349 OA
HETATM   23  C   UNK     0     152.448 141.661 140.988  0.00  0.00     0.174 C 
ENDBRANCH  21  22
ENDBRANCH  20  21
ENDBRANCH  19  20
ENDBRANCH  12  19
BRANCH  16  24
HETATM   24  N   UNK     0     147.547 146.599 140.550  0.00  0.00    -0.116 N 
HETATM   25  O   UNK     0     148.425 146.723 139.291  0.00  0.00    -0.532 OA
HETATM   26  O   UNK     0     146.643 145.366 140.740  0.00  0.00    -0.532 OA
ENDBRANCH  16  24
BRANCH  10  27
HETATM   27  O   UNK     0     148.913 152.306 146.801  0.00  0.00    -0.313 OA
BRANCH  27  28
HETATM   28  C   UNK     0     148.027 153.556 146.638  0.00  0.00     0.124 C 
HETATM   29  C   UNK     0     148.448 154.678 145.671  0.00  0.00     0.033 C 
HETATM   30  C   UNK     0     146.719 153.682 147.441  0.00  0.00     0.033 C 
ENDBRANCH  27  28
ENDBRANCH  10  27
TORSDOF 7
ENDMDL
MODEL 3
REMARK VINA RESULT:      -7.8      2.505      5.813
REMARK  7 active torsions:
REMARK  status: ('A' for Active; 'I' for Inactive)
REMARK    1  A    between atoms: O_1  and  C_16 
REMARK    2  A    between atoms: O_1  and  C_24 
REMARK    3  A    between atoms: O_2  and  C_18 
REMARK    4  A    between atoms: O_2  and  C_26 
REMARK    5  A    between atoms: O_5  and  C_29 
REMARK    6  A    between atoms: N_9  and  C_22 
REMARK    7  A    between atoms: C_26  and  C_29 
ROOT
HETATM    1  O   UNK     0     146.544 147.306 142.675  0.00  0.00    -0.290 OA
HETATM    2  O   UNK     0     151.076 148.668 145.137  0.00  0.00    -0.284 OA
HETATM    3  N   UNK     0     150.735 144.008 142.562  0.00  0.00    -0.254 NA
HETATM    4  C   UNK     0     149.451 146.660 143.458  0.00  0.00     0.014 A 
HETATM    5  C   UNK     0     148.640 145.657 142.619  0.00  0.00     0.060 A 
HETATM    6  C   UNK     0     150.906 146.338 143.850  0.00  0.00     0.060 A 
HETATM    7  C   UNK     0     148.809 147.987 143.906  0.00  0.00     0.043 A 
HETATM    8  C   UNK     0     149.282 144.330 142.171  0.00  0.00     0.063 A 
HETATM    9  C   UNK     0     151.547 145.011 143.402  0.00  0.00     0.063 A 
HETATM   10  C   UNK     0     147.185 145.979 142.227  0.00  0.00     0.200 A 
HETATM   11  C   UNK     0     149.622 148.990 144.745  0.00  0.00     0.121 A 
HETATM   12  C   UNK     0     151.718 147.342 144.689  0.00  0.00     0.200 A 
HETATM   13  C   UNK     0     147.356 148.309 143.514  0.00  0.00     0.082 A 
HETATM   14  C   UNK     0     148.469 143.327 141.331  0.00  0.00     0.052 C 
HETATM   15  C   UNK     0     153.002 144.689 143.793  0.00  0.00     0.052 C 
HETATM   16  C   UNK     0     148.980 150.317 145.193  0.00  0.00     0.127 A 
HETATM   17  C   UNK     0     146.714 149.636 143.962  0.00  0.00     0.058 A 
HETATM   18  C   UNK     0     147.526 150.639 144.801  0.00  0.00     0.059 A 
ENDROOT
BRANCH  12  19
HETATM   19  O   UNK     0     153.172 147.019 145.081  0.00  0.00    -0.308 OA
BRANCH  19  20
HETATM   20  C   UNK     0     154.324 147.889 144.546  0.00  0.00     0.183 C 
BRANCH  20  21
HETATM   21  C   UNK     0     154.220 148.533 143.151  0.00  0.00     0.175 C 
BRANCH  21  22
HETATM   22  O   UNK     0     154.281 150.065 143.003  0.00  0.00    -0.349 OA
HETATM   23  C   UNK     0     152.980 150.885 142.930  0.00  0.00     0.174 C 
ENDBRANCH  21  22
ENDBRANCH  20  21
ENDBRANCH  19  20
ENDBRANCH  12  19
BRANCH  16  24
HETATM   24  N   UNK     0     149.793 151.320 146.033  0.00  0.00    -0.116 N 
HETATM   25  O   UNK     0     150.222 150.956 147.466  0.00  0.00    -0.532 OA
HETATM   26  O   UNK     0     150.176 152.689 145.439  0.00  0.00    -0.532 OA
ENDBRANCH  16  24
BRANCH  10  27
HETATM   27  O   UNK     0     146.374 144.976 141.388  0.00  0.00    -0.313 OA
BRANCH  27  28
HETATM   28  C   UNK     0     144.835 145.037 141.390  0.00  0.00     0.124 C 
HETATM   29  C   UNK     0     144.044 144.506 142.601  0.00  0.00     0.033 C 
HETATM   30  C   UNK     0     144.086 145.630 140.182  0.00  0.00     0.033 C 
ENDBRANCH  27  28
ENDBRANCH  10  27
TORSDOF 7
ENDMDL
MODEL 4
REMARK VINA RESULT:      -7.5      2.700      6.470
REMARK  7 active torsions:
REMARK  status: ('A' for Active; 'I' for Inactive)
REMARK    1  A    between atoms: O_1  and  C_16 
REMARK    2  A    between atoms: O_1  and  C_24 
REMARK    3  A    between atoms: O_2  and  C_18 
REMARK    4  A    between atoms: O_2  and  C_26 
REMARK    5  A    between atoms: O_5  and  C_29 
REMARK    6  A    between atoms: N_9  and  C_22 
REMARK    7  A    between atoms: C_26  and  C_29 
ROOT
HETATM    1  O   UNK     0     151.138 147.382 143.978  0.00  0.00    -0.290 OA
HETATM    2  O   UNK     0     148.675 143.430 141.375  0.00  0.00    -0.284 OA
HETATM    3  N   UNK     0     146.275 148.163 141.928  0.00  0.00    -0.254 NA
HETATM    4  C   UNK     0     148.696 146.325 142.427  0.00  0.00     0.014 A 
HETATM    5  C   UNK     0     148.706 147.772 142.953  0.00  0.00     0.060 A 
HETATM    6  C   UNK     0     147.475 145.796 141.651  0.00  0.00     0.060 A 
HETATM    7  C   UNK     0     149.906 145.407 142.677  0.00  0.00     0.043 A 
HETATM    8  C   UNK     0     147.495 148.691 142.703  0.00  0.00     0.063 A 
HETATM    9  C   UNK     0     146.264 146.715 141.402  0.00  0.00     0.063 A 
HETATM   10  C   UNK     0     149.927 148.301 143.729  0.00  0.00     0.200 A 
HETATM   11  C   UNK     0     149.896 143.959 142.150  0.00  0.00     0.121 A 
HETATM   12  C   UNK     0     147.464 144.349 141.125  0.00  0.00     0.200 A 
HETATM   13  C   UNK     0     151.127 145.935 143.452  0.00  0.00     0.082 A 
HETATM   14  C   UNK     0     147.506 150.138 143.230  0.00  0.00     0.052 C 
HETATM   15  C   UNK     0     145.043 146.186 140.626  0.00  0.00     0.052 C 
HETATM   16  C   UNK     0     151.106 143.040 142.400  0.00  0.00     0.127 A 
HETATM   17  C   UNK     0     152.337 145.016 143.701  0.00  0.00     0.058 A 
HETATM   18  C   UNK     0     152.327 143.569 143.176  0.00  0.00     0.059 A 
ENDROOT
BRANCH  12  19
HETATM   19  O   UNK     0     146.243 143.820 140.349  0.00  0.00    -0.308 OA
BRANCH  19  20
HETATM   20  C   UNK     0     145.513 142.554 140.833  0.00  0.00     0.183 C 
BRANCH  20  21
HETATM   21  C   UNK     0     145.131 142.406 142.318  0.00  0.00     0.175 C 
BRANCH  21  22
HETATM   22  O   UNK     0     144.313 143.508 143.017  0.00  0.00    -0.349 OA
HETATM   23  C   UNK     0     142.895 143.847 142.520  0.00  0.00     0.174 C 
ENDBRANCH  21  22
ENDBRANCH  20  21
ENDBRANCH  19  20
ENDBRANCH  12  19
BRANCH  16  24
HETATM   24  N   UNK     0     151.096 141.593 141.874  0.00  0.00    -0.116 N 
HETATM   25  O   UNK     0     152.070 141.172 140.757  0.00  0.00    -0.532 OA
HETATM   26  O   UNK     0     150.111 140.566 142.464  0.00  0.00    -0.532 OA
ENDBRANCH  16  24
BRANCH  10  27
HETATM   27  O   UNK     0     149.937 149.748 144.254  0.00  0.00    -0.313 OA
BRANCH  27  28
HETATM   28  C   UNK     0     151.013 150.737 143.767  0.00  0.00     0.124 C 
HETATM   29  C   UNK     0     151.164 151.030 142.262  0.00  0.00     0.033 C 
HETATM   30  C   UNK     0     151.936 151.433 144.784  0.00  0.00     0.033 C 
ENDBRANCH  27  28
ENDBRANCH  10  27
TORSDOF 7
ENDMDL
MODEL 5
REMARK VINA RESULT:      -7.5      2.609      6.537
REMARK  7 active torsions:
REMARK  status: ('A' for Active; 'I' for Inactive)
REMARK    1  A    between atoms: O_1  and  C_16 
REMARK    2  A    between atoms: O_1  and  C_24 
REMARK    3  A    between atoms: O_2  and  C_18 
REMARK    4  A    between atoms: O_2  and  C_26 
REMARK    5  A    between atoms: O_5  and  C_29 
REMARK    6  A    between atoms: N_9  and  C_22 
REMARK    7  A    between atoms: C_26  and  C_29 
ROOT
HETATM    1  O   UNK     0     152.345 147.967 144.415  0.00  0.00    -0.290 OA
HETATM    2  O   UNK     0     148.672 145.176 141.734  0.00  0.00    -0.284 OA
HETATM    3  N   UNK     0     147.840 150.334 142.813  0.00  0.00    -0.254 NA
HETATM    4  C   UNK     0     149.619 147.826 142.988  0.00  0.00     0.014 A 
HETATM    5  C   UNK     0     150.092 149.150 143.614  0.00  0.00     0.060 A 
HETATM    6  C   UNK     0     148.256 147.755 142.274  0.00  0.00     0.060 A 
HETATM    7  C   UNK     0     150.509 146.572 143.075  0.00  0.00     0.043 A 
HETATM    8  C   UNK     0     149.202 150.404 143.527  0.00  0.00     0.063 A 
HETATM    9  C   UNK     0     147.367 149.009 142.187  0.00  0.00     0.063 A 
HETATM   10  C   UNK     0     151.455 149.221 144.328  0.00  0.00     0.200 A 
HETATM   11  C   UNK     0     150.035 145.247 142.448  0.00  0.00     0.121 A 
HETATM   12  C   UNK     0     147.783 146.430 141.647  0.00  0.00     0.200 A 
HETATM   13  C   UNK     0     151.871 146.642 143.788  0.00  0.00     0.082 A 
HETATM   14  C   UNK     0     149.676 151.729 144.153  0.00  0.00     0.052 C 
HETATM   15  C   UNK     0     146.004 148.938 141.473  0.00  0.00     0.052 C 
HETATM   16  C   UNK     0     150.925 143.993 142.535  0.00  0.00     0.127 A 
HETATM   17  C   UNK     0     152.761 145.388 143.875  0.00  0.00     0.058 A 
HETATM   18  C   UNK     0     152.288 144.064 143.249  0.00  0.00     0.059 A 
ENDROOT
BRANCH  12  19
HETATM   19  O   UNK     0     146.420 146.359 140.933  0.00  0.00    -0.308 OA
BRANCH  19  20
HETATM   20  C   UNK     0     146.280 145.571 139.618  0.00  0.00     0.183 C 
BRANCH  20  21
HETATM   21  C   UNK     0     145.447 144.276 139.581  0.00  0.00     0.175 C 
BRANCH  21  22
HETATM   22  O   UNK     0     143.940 144.319 139.896  0.00  0.00    -0.349 OA
HETATM   23  C   UNK     0     143.461 144.633 141.326  0.00  0.00     0.174 C 
ENDBRANCH  21  22
ENDBRANCH  20  21
ENDBRANCH  19  20
ENDBRANCH  12  19
BRANCH  16  24
HETATM   24  N   UNK     0     150.452 142.668 141.909  0.00  0.00    -0.116 N 
HETATM   25  O   UNK     0     149.241 141.924 142.503  0.00  0.00    -0.532 OA
HETATM   26  O   UNK     0     151.189 142.086 140.687  0.00  0.00    -0.532 OA
ENDBRANCH  16  24
BRANCH  10  27
HETATM   27  O   UNK     0     151.928 150.546 144.954  0.00  0.00    -0.313 OA
BRANCH  27  28
HETATM   28  C   UNK     0     153.082 151.334 144.308  0.00  0.00     0.124 C 
HETATM   29  C   UNK     0     153.711 152.528 145.051  0.00  0.00     0.033 C 
HETATM   30  C   UNK     0     153.608 150.929 142.918  0.00  0.00     0.033 C 
ENDBRANCH  27  28
ENDBRANCH  10  27
TORSDOF 7
ENDMDL
MODEL 6
REMARK VINA RESULT:      -7.3      2.175      5.067
REMARK  7 active torsions:
REMARK  status: ('A' for Active; 'I' for Inactive)
REMARK    1  A    between atoms: O_1  and  C_16 
REMARK    2  A    between atoms: O_1  and  C_24 
REMARK    3  A    between atoms: O_2  and  C_18 
REMARK    4  A    between atoms: O_2  and  C_26 
REMARK    5  A    between atoms: O_5  and  C_29 
REMARK    6  A    between atoms: N_9  and  C_22 
REMARK    7  A    between atoms: C_26  and  C_29 
ROOT
HETATM    1  O   UNK     0     148.193 143.689 141.321  0.00  0.00    -0.290 OA
HETATM    2  O   UNK     0     149.144 148.401 143.637  0.00  0.00    -0.284 OA
HETATM    3  N   UNK     0     152.889 144.602 143.682  0.00  0.00    -0.254 NA
HETATM    4  C   UNK     0     150.075 145.564 142.880  0.00  0.00     0.014 A 
HETATM    5  C   UNK     0     150.541 144.146 142.502  0.00  0.00     0.060 A 
HETATM    6  C   UNK     0     151.016 146.501 143.659  0.00  0.00     0.060 A 
HETATM    7  C   UNK     0     148.668 146.045 142.479  0.00  0.00     0.043 A 
HETATM    8  C   UNK     0     151.948 143.665 142.903  0.00  0.00     0.063 A 
HETATM    9  C   UNK     0     152.423 146.020 144.061  0.00  0.00     0.063 A 
HETATM   10  C   UNK     0     149.600 143.208 141.722  0.00  0.00     0.200 A 
HETATM   11  C   UNK     0     148.203 147.463 142.857  0.00  0.00     0.121 A 
HETATM   12  C   UNK     0     150.551 147.920 144.038  0.00  0.00     0.200 A 
HETATM   13  C   UNK     0     147.727 145.108 141.700  0.00  0.00     0.082 A 
HETATM   14  C   UNK     0     152.414 142.247 142.525  0.00  0.00     0.052 C 
HETATM   15  C   UNK     0     153.364 146.958 144.840  0.00  0.00     0.052 C 
HETATM   16  C   UNK     0     146.796 147.944 142.456  0.00  0.00     0.127 A 
HETATM   17  C   UNK     0     146.321 145.589 141.298  0.00  0.00     0.058 A 
HETATM   18  C   UNK     0     145.855 147.006 141.677  0.00  0.00     0.059 A 
ENDROOT
BRANCH  12  19
HETATM   19  O   UNK     0     151.492 148.857 144.818  0.00  0.00    -0.308 OA
BRANCH  19  20
HETATM   20  C   UNK     0     151.385 150.382 144.633  0.00  0.00     0.183 C 
BRANCH  20  21
HETATM   21  C   UNK     0     151.386 150.989 143.218  0.00  0.00     0.175 C 
BRANCH  21  22
HETATM   22  O   UNK     0     152.694 151.049 142.406  0.00  0.00    -0.349 OA
HETATM   23  C   UNK     0     154.034 150.692 143.077  0.00  0.00     0.174 C 
ENDBRANCH  21  22
ENDBRANCH  20  21
ENDBRANCH  19  20
ENDBRANCH  12  19
BRANCH  16  24
HETATM   24  N   UNK     0     146.330 149.363 142.835  0.00  0.00    -0.116 N 
HETATM   25  O   UNK     0     146.675 149.943 144.219  0.00  0.00    -0.532 OA
HETATM   26  O   UNK     0     145.519 150.201 141.829  0.00  0.00    -0.532 OA
ENDBRANCH  16  24
BRANCH  10  27
HETATM   27  O   UNK     0     150.066 141.791 141.344  0.00  0.00    -0.313 OA
BRANCH  27  28
HETATM   28  C   UNK     0     149.192 140.573 141.697  0.00  0.00     0.124 C 
HETATM   29  C   UNK     0     148.196 140.014 140.664  0.00  0.00     0.033 C 
HETATM   30  C   UNK     0     149.313 139.915 143.084  0.00  0.00     0.033 C 
ENDBRANCH  27  28
ENDBRANCH  10  27
TORSDOF 7
ENDMDL
MODEL 7
REMARK VINA RESULT:      -7.3      2.438      5.390
REMARK  7 active torsions:
REMARK  status: ('A' for Active; 'I' for Inactive)
REMARK    1  A    between atoms: O_1  and  C_16 
REMARK    2  A    between atoms: O_1  and  C_24 
REMARK    3  A    between atoms: O_2  and  C_18 
REMARK    4  A    between atoms: O_2  and  C_26 
REMARK    5  A    between atoms: O_5  and  C_29 
REMARK    6  A    between atoms: N_9  and  C_22 
REMARK    7  A    between atoms: C_26  and  C_29 
ROOT
HETATM    1  O   UNK     0     146.272 145.316 140.990  0.00  0.00    -0.290 OA
HETATM    2  O   UNK     0     150.600 147.537 143.180  0.00  0.00    -0.284 OA
HETATM    3  N   UNK     0     150.507 142.297 142.179  0.00  0.00    -0.254 NA
HETATM    4  C   UNK     0     149.126 145.050 142.116  0.00  0.00     0.014 A 
HETATM    5  C   UNK     0     148.390 143.806 141.585  0.00  0.00     0.060 A 
HETATM    6  C   UNK     0     150.553 144.917 142.680  0.00  0.00     0.060 A 
HETATM    7  C   UNK     0     148.436 146.426 142.085  0.00  0.00     0.043 A 
HETATM    8  C   UNK     0     149.080 142.430 141.616  0.00  0.00     0.063 A 
HETATM    9  C   UNK     0     151.244 143.541 142.711  0.00  0.00     0.063 A 
HETATM   10  C   UNK     0     146.962 143.939 141.022  0.00  0.00     0.200 A 
HETATM   11  C   UNK     0     149.173 147.669 142.617  0.00  0.00     0.121 A 
HETATM   12  C   UNK     0     151.291 146.160 143.211  0.00  0.00     0.200 A 
HETATM   13  C   UNK     0     147.009 146.559 141.522  0.00  0.00     0.082 A 
HETATM   14  C   UNK     0     148.343 141.187 141.085  0.00  0.00     0.052 C 
HETATM   15  C   UNK     0     152.671 143.408 143.274  0.00  0.00     0.052 C 
HETATM   16  C   UNK     0     148.483 149.046 142.585  0.00  0.00     0.127 A 
HETATM   17  C   UNK     0     146.319 147.935 141.491  0.00  0.00     0.058 A 
HETATM   18  C   UNK     0     147.055 149.178 142.022  0.00  0.00     0.059 A 
ENDROOT
BRANCH  12  19
HETATM   19  O   UNK     0     152.718 146.027 143.775  0.00  0.00    -0.308 OA
BRANCH  19  20
HETATM   20  C   UNK     0     153.095 146.732 145.090  0.00  0.00     0.183 C 
BRANCH  20  21
HETATM   21  C   UNK     0     153.833 148.083 145.056  0.00  0.00     0.175 C 
BRANCH  21  22
HETATM   22  O   UNK     0     153.034 149.395 144.942  0.00  0.00    -0.349 OA
HETATM   23  C   UNK     0     151.764 149.600 145.790  0.00  0.00     0.174 C 
ENDBRANCH  21  22
ENDBRANCH  20  21
ENDBRANCH  19  20
ENDBRANCH  12  19
BRANCH  16  24
HETATM   24  N   UNK     0     149.220 150.289 143.117  0.00  0.00    -0.116 N 
HETATM   25  O   UNK     0     150.468 150.815 142.385  0.00  0.00    -0.532 OA
HETATM   26  O   UNK     0     148.708 151.006 144.381  0.00  0.00    -0.532 OA
ENDBRANCH  16  24
BRANCH  10  27
HETATM   27  O   UNK     0     146.226 142.696 140.490  0.00  0.00    -0.313 OA
BRANCH  27  28
HETATM   28  C   UNK     0     144.694 142.596 140.617  0.00  0.00     0.124 C 
HETATM   29  C   UNK     0     143.789 143.241 139.550  0.00  0.00     0.033 C 
HETATM   30  C   UNK     0     144.067 141.851 141.810  0.00  0.00     0.033 C 
ENDBRANCH  27  28
ENDBRANCH  10  27
TORSDOF 7
ENDMDL
MODEL 8
REMARK VINA RESULT:      -7.1     23.171     26.865
REMARK  7 active torsions:
REMARK  status: ('A' for Active; 'I' for Inactive)
REMARK    1  A    between atoms: O_1  and  C_16 
REMARK    2  A    between atoms: O_1  and  C_24 
REMARK    3  A    between atoms: O_2  and  C_18 
REMARK    4  A    between atoms: O_2  and  C_26 
REMARK    5  A    between atoms: O_5  and  C_29 
REMARK    6  A    between atoms: N_9  and  C_22 
REMARK    7  A    between atoms: C_26  and  C_29 
ROOT
HETATM    1  O   UNK     0     173.133 156.301 146.440  0.00  0.00    -0.290 OA
HETATM    2  O   UNK     0     172.321 159.848 142.538  0.00  0.00    -0.284 OA
HETATM    3  N   UNK     0     177.258 158.122 143.590  0.00  0.00    -0.254 NA
HETATM    4  C   UNK     0     174.238 158.090 144.190  0.00  0.00     0.014 A 
HETATM    5  C   UNK     0     175.196 157.212 145.015  0.00  0.00     0.060 A 
HETATM    6  C   UNK     0     174.790 158.985 143.064  0.00  0.00     0.060 A 
HETATM    7  C   UNK     0     172.727 158.074 144.489  0.00  0.00     0.043 A 
HETATM    8  C   UNK     0     176.706 157.228 144.715  0.00  0.00     0.063 A 
HETATM    9  C   UNK     0     176.300 159.001 142.764  0.00  0.00     0.063 A 
HETATM   10  C   UNK     0     174.644 156.317 146.140  0.00  0.00     0.200 A 
HETATM   11  C   UNK     0     171.769 158.953 143.664  0.00  0.00     0.121 A 
HETATM   12  C   UNK     0     173.831 159.864 142.238  0.00  0.00     0.200 A 
HETATM   13  C   UNK     0     172.175 157.180 145.614  0.00  0.00     0.082 A 
HETATM   14  C   UNK     0     177.665 156.349 145.540  0.00  0.00     0.052 C 
HETATM   15  C   UNK     0     176.852 159.896 141.639  0.00  0.00     0.052 C 
HETATM   16  C   UNK     0     170.258 158.937 143.964  0.00  0.00     0.127 A 
HETATM   17  C   UNK     0     170.664 157.164 145.914  0.00  0.00     0.058 A 
HETATM   18  C   UNK     0     169.706 158.042 145.089  0.00  0.00     0.059 A 
ENDROOT
BRANCH  12  19
HETATM   19  O   UNK     0     174.383 160.759 141.113  0.00  0.00    -0.308 OA
BRANCH  19  20
HETATM   20  C   UNK     0     174.336 162.291 141.255  0.00  0.00     0.183 C 
BRANCH  20  21
HETATM   21  C   UNK     0     172.995 162.998 141.530  0.00  0.00     0.175 C 
BRANCH  21  22
HETATM   22  O   UNK     0     172.924 164.140 142.561  0.00  0.00    -0.349 OA
HETATM   23  C   UNK     0     171.808 165.197 142.463  0.00  0.00     0.174 C 
ENDBRANCH  21  22
ENDBRANCH  20  21
ENDBRANCH  19  20
ENDBRANCH  12  19
BRANCH  16  24
HETATM   24  N   UNK     0     169.300 159.815 143.138  0.00  0.00    -0.116 N 
HETATM   25  O   UNK     0     169.189 159.613 141.615  0.00  0.00    -0.532 OA
HETATM   26  O   UNK     0     168.452 160.896 143.835  0.00  0.00    -0.532 OA
ENDBRANCH  16  24
BRANCH  10  27
HETATM   27  O   UNK     0     175.602 155.439 146.965  0.00  0.00    -0.313 OA
BRANCH  27  28
HETATM   28  C   UNK     0     175.486 155.405 148.501  0.00  0.00     0.124 C 
HETATM   29  C   UNK     0     175.577 156.714 149.309  0.00  0.00     0.033 C 
HETATM   30  C   UNK     0     175.280 154.064 149.228  0.00  0.00     0.033 C 
ENDBRANCH  27  28
ENDBRANCH  10  27
TORSDOF 7
ENDMDL
MODEL 9
REMARK VINA RESULT:      -7.1     26.453     30.109
REMARK  7 active torsions:
REMARK  status: ('A' for Active; 'I' for Inactive)
REMARK    1  A    between atoms: O_1  and  C_16 
REMARK    2  A    between atoms: O_1  and  C_24 
REMARK    3  A    between atoms: O_2  and  C_18 
REMARK    4  A    between atoms: O_2  and  C_26 
REMARK    5  A    between atoms: O_5  and  C_29 
REMARK    6  A    between atoms: N_9  and  C_22 
REMARK    7  A    between atoms: C_26  and  C_29 
ROOT
HETATM    1  O   UNK     0     175.093 157.325 144.590  0.00  0.00    -0.290 OA
HETATM    2  O   UNK     0     178.039 154.635 148.132  0.00  0.00    -0.284 OA
HETATM    3  N   UNK     0     180.366 156.905 143.902  0.00  0.00    -0.254 NA
HETATM    4  C   UNK     0     177.833 156.289 145.541  0.00  0.00     0.014 A 
HETATM    5  C   UNK     0     177.730 157.115 144.246  0.00  0.00     0.060 A 
HETATM    6  C   UNK     0     179.203 155.770 146.017  0.00  0.00     0.060 A 
HETATM    7  C   UNK     0     176.566 155.981 146.361  0.00  0.00     0.043 A 
HETATM    8  C   UNK     0     178.997 157.423 143.427  0.00  0.00     0.063 A 
HETATM    9  C   UNK     0     180.470 156.078 145.197  0.00  0.00     0.063 A 
HETATM   10  C   UNK     0     176.360 157.633 143.771  0.00  0.00     0.200 A 
HETATM   11  C   UNK     0     176.669 155.154 147.656  0.00  0.00     0.121 A 
HETATM   12  C   UNK     0     179.306 154.943 147.312  0.00  0.00     0.200 A 
HETATM   13  C   UNK     0     175.197 156.499 145.886  0.00  0.00     0.082 A 
HETATM   14  C   UNK     0     178.893 158.250 142.131  0.00  0.00     0.052 C 
HETATM   15  C   UNK     0     181.840 155.559 145.673  0.00  0.00     0.052 C 
HETATM   16  C   UNK     0     175.403 154.846 148.476  0.00  0.00     0.127 A 
HETATM   17  C   UNK     0     173.930 156.191 146.706  0.00  0.00     0.058 A 
HETATM   18  C   UNK     0     174.033 155.364 148.001  0.00  0.00     0.059 A 
ENDROOT
BRANCH  12  19
HETATM   19  O   UNK     0     180.676 154.425 147.788  0.00  0.00    -0.308 OA
BRANCH  19  20
HETATM   20  C   UNK     0     181.126 154.660 149.242  0.00  0.00     0.183 C 
BRANCH  20  21
HETATM   21  C   UNK     0     180.589 155.871 150.027  0.00  0.00     0.175 C 
BRANCH  21  22
HETATM   22  O   UNK     0     180.116 155.697 151.483  0.00  0.00    -0.349 OA
HETATM   23  C   UNK     0     181.048 155.050 152.523  0.00  0.00     0.174 C 
ENDBRANCH  21  22
ENDBRANCH  20  21
ENDBRANCH  19  20
ENDBRANCH  12  19
BRANCH  16  24
HETATM   24  N   UNK     0     175.506 154.019 149.772  0.00  0.00    -0.116 N 
HETATM   25  O   UNK     0     175.608 152.484 149.699  0.00  0.00    -0.532 OA
HETATM   26  O   UNK     0     175.507 154.727 151.140  0.00  0.00    -0.532 OA
ENDBRANCH  16  24
BRANCH  10  27
HETATM   27  O   UNK     0     176.257 158.460 142.476  0.00  0.00    -0.313 OA
BRANCH  27  28
HETATM   28  C   UNK     0     175.613 159.858 142.504  0.00  0.00     0.124 C 
HETATM   29  C   UNK     0     174.111 160.021 142.201  0.00  0.00     0.033 C 
HETATM   30  C   UNK     0     176.470 161.094 142.835  0.00  0.00     0.033 C 
ENDBRANCH  27  28
ENDBRANCH  10  27
TORSDOF 7
ENDMDL
MODEL 10
REMARK VINA RESULT:      -6.9     40.808     45.093
REMARK  7 active torsions:
REMARK  status: ('A' for Active; 'I' for Inactive)
REMARK    1  A    between atoms: O_1  and  C_16 
REMARK    2  A    between atoms: O_1  and  C_24 
REMARK    3  A    between atoms: O_2  and  C_18 
REMARK    4  A    between atoms: O_2  and  C_26 
REMARK    5  A    between atoms: O_5  and  C_29 
REMARK    6  A    between atoms: N_9  and  C_22 
REMARK    7  A    between atoms: C_26  and  C_29 
ROOT
HETATM    1  O   UNK     0     126.790 182.516 141.868  0.00  0.00    -0.290 OA
HETATM    2  O   UNK     0     122.988 184.700 138.829  0.00  0.00    -0.284 OA
HETATM    3  N   UNK     0     124.592 179.695 137.910  0.00  0.00    -0.254 NA
HETATM    4  C   UNK     0     124.791 182.304 139.536  0.00  0.00     0.014 A 
HETATM    5  C   UNK     0     125.691 181.106 139.889  0.00  0.00     0.060 A 
HETATM    6  C   UNK     0     123.790 182.198 138.369  0.00  0.00     0.060 A 
HETATM    7  C   UNK     0     124.890 183.608 140.349  0.00  0.00     0.043 A 
HETATM    8  C   UNK     0     125.592 179.802 139.076  0.00  0.00     0.063 A 
HETATM    9  C   UNK     0     123.691 180.893 137.556  0.00  0.00     0.063 A 
HETATM   10  C   UNK     0     126.691 181.212 141.055  0.00  0.00     0.200 A 
HETATM   11  C   UNK     0     123.989 184.806 139.995  0.00  0.00     0.121 A 
HETATM   12  C   UNK     0     122.889 183.396 138.016  0.00  0.00     0.200 A 
HETATM   13  C   UNK     0     125.889 183.714 141.515  0.00  0.00     0.082 A 
HETATM   14  C   UNK     0     126.493 178.604 139.429  0.00  0.00     0.052 C 
HETATM   15  C   UNK     0     122.691 180.787 136.390  0.00  0.00     0.052 C 
HETATM   16  C   UNK     0     124.088 186.110 140.808  0.00  0.00     0.127 A 
HETATM   17  C   UNK     0     125.988 185.018 142.328  0.00  0.00     0.058 A 
HETATM   18  C   UNK     0     125.088 186.216 141.975  0.00  0.00     0.059 A 
ENDROOT
BRANCH  12  19
HETATM   19  O   UNK     0     121.889 183.290 136.849  0.00  0.00    -0.308 OA
BRANCH  19  20
HETATM   20  C   UNK     0     120.410 183.655 137.069  0.00  0.00     0.183 C 
BRANCH  20  21
HETATM   21  C   UNK     0     119.573 182.887 138.110  0.00  0.00     0.175 C 
BRANCH  21  22
HETATM   22  O   UNK     0     118.636 181.751 137.659  0.00  0.00    -0.349 OA
HETATM   23  C   UNK     0     117.687 181.963 136.464  0.00  0.00     0.174 C 
ENDBRANCH  21  22
ENDBRANCH  20  21
ENDBRANCH  19  20
ENDBRANCH  12  19
BRANCH  16  24
HETATM   24  N   UNK     0     123.187 187.308 140.455  0.00  0.00    -0.116 N 
HETATM   25  O   UNK     0     122.014 187.689 141.378  0.00  0.00    -0.532 OA
HETATM   26  O   UNK     0     123.458 188.126 139.178  0.00  0.00    -0.532 OA
ENDBRANCH  16  24
BRANCH  10  27
HETATM   27  O   UNK     0     127.592 180.014 141.408  0.00  0.00    -0.313 OA
BRANCH  27  28
HETATM   28  C   UNK     0     129.108 180.217 141.585  0.00  0.00     0.124 C 
HETATM   29  C   UNK     0     130.013 180.381 140.350  0.00  0.00     0.033 C 
HETATM   30  C   UNK     0     129.720 180.256 142.998  0.00  0.00     0.033 C 
ENDBRANCH  27  28
ENDBRANCH  10  27
TORSDOF 7
ENDMDL
