MODEL 1
REMARK VINA RESULT:      -8.5      0.000      0.000
REMARK  4 active torsions:
REMARK  status: ('A' for Active; 'I' for Inactive)
REMARK    1  A    between atoms: O_1  and  C_15 
REMARK    2  A    between atoms: O_1  and  C_22 
REMARK    3  A    between atoms: O_2  and  C_19 
REMARK    4  A    between atoms: C_21  and  C_22 
ROOT
HETATM    1  O   UNK     0     149.147 149.935 143.951  0.00  0.00    -0.290 OA
HETATM    2  O   UNK     0     148.077 145.347 141.447  0.00  0.00     0.000 OA
HETATM    3  O   UNK     0     145.442 146.540 140.388  0.00  0.00    -0.223 OA
HETATM    4  O   UNK     0     147.151 144.499 140.557  0.00  0.00     0.000 OA
HETATM    5  N   UNK     0     152.564 145.853 144.289  0.00  0.00    -0.254 NA
HETATM    6  N   UNK     0     146.760 145.944 140.917  0.00  0.00     0.000 N 
HETATM    7  C   UNK     0     149.929 147.045 143.229  0.00  0.00     0.006 A 
HETATM    8  C   UNK     0     150.855 147.894 144.121  0.00  0.00     0.060 A 
HETATM    9  C   UNK     0     150.320 145.600 142.868  0.00  0.00     0.038 A 
HETATM   10  C   UNK     0     148.612 147.642 142.700  0.00  0.00    -0.001 A 
HETATM   11  C   UNK     0     152.173 147.298 144.650  0.00  0.00     0.063 A 
HETATM   12  C   UNK     0     151.638 145.004 143.398  0.00  0.00     0.061 A 
HETATM   13  C   UNK     0     150.464 149.339 144.481  0.00  0.00     0.200 A 
HETATM   14  C   UNK     0     147.686 146.793 141.809  0.00  0.00     0.061 A 
HETATM   15  C   UNK     0     148.221 149.087 143.061  0.00  0.00     0.076 A 
HETATM   16  C   UNK     0     153.099 148.146 145.541  0.00  0.00     0.052 C 
HETATM   17  C   UNK     0     149.394 144.751 141.977  0.00  0.00     0.117 A 
HETATM   18  C   UNK     0     152.029 143.558 143.037  0.00  0.00     0.052 C 
HETATM   19  C   UNK     0     146.369 147.389 141.279  0.00  0.00     0.157 A 
HETATM   20  C   UNK     0     146.903 149.683 142.531  0.00  0.00     0.054 A 
HETATM   21  C   UNK     0     145.977 148.834 141.640  0.00  0.00     0.040 A 
ENDROOT
BRANCH  13  22
HETATM   22  O   UNK     0     151.390 150.188 145.372  0.00  0.00    -0.311 OA
BRANCH  22  23
HETATM   23  C   UNK     0     151.842 151.583 144.904  0.00  0.00     0.151 C 
BRANCH  23  24
HETATM   24  C   UNK     0     153.195 151.754 144.189  0.00  0.00     0.030 C 
HETATM   25  C   UNK     0     153.501 150.944 142.915  0.00  0.00     0.003 C 
HETATM   26  C   UNK     0     154.242 152.735 144.747  0.00  0.00     0.003 C 
ENDBRANCH  23  24
ENDBRANCH  22  23
ENDBRANCH  13  22
BRANCH  17  27
HETATM   27  O   UNK     0     149.786 143.307 141.616  0.00  0.00    -0.326 OA
HETATM   28  C   UNK     0     148.942 142.128 142.137  0.00  0.00     0.181 C 
ENDBRANCH  17  27
TORSDOF 4
ENDMDL
MODEL 2
REMARK VINA RESULT:      -8.2      2.440      7.232
REMARK  4 active torsions:
REMARK  status: ('A' for Active; 'I' for Inactive)
REMARK    1  A    between atoms: O_1  and  C_15 
REMARK    2  A    between atoms: O_1  and  C_22 
REMARK    3  A    between atoms: O_2  and  C_19 
REMARK    4  A    between atoms: C_21  and  C_22 
ROOT
HETATM    1  O   UNK     0     147.419 144.937 141.686  0.00  0.00    -0.290 OA
HETATM    2  O   UNK     0     152.308 146.128 143.458  0.00  0.00     0.000 OA
HETATM    3  O   UNK     0     153.109 143.162 143.241  0.00  0.00    -0.223 OA
HETATM    4  O   UNK     0     153.730 145.684 143.846  0.00  0.00     0.000 OA
HETATM    5  N   UNK     0     148.661 149.982 142.897  0.00  0.00    -0.254 NA
HETATM    6  N   UNK     0     152.709 144.645 143.349  0.00  0.00     0.000 N 
HETATM    7  C   UNK     0     149.462 147.016 142.680  0.00  0.00     0.006 A 
HETATM    8  C   UNK     0     148.039 147.459 142.292  0.00  0.00     0.060 A 
HETATM    9  C   UNK     0     150.485 148.055 143.177  0.00  0.00     0.038 A 
HETATM   10  C   UNK     0     149.863 145.532 142.572  0.00  0.00    -0.001 A 
HETATM   11  C   UNK     0     147.639 148.942 142.400  0.00  0.00     0.063 A 
HETATM   12  C   UNK     0     150.084 149.538 143.286  0.00  0.00     0.061 A 
HETATM   13  C   UNK     0     147.018 146.420 141.795  0.00  0.00     0.200 A 
HETATM   14  C   UNK     0     151.286 145.089 142.961  0.00  0.00     0.061 A 
HETATM   15  C   UNK     0     148.840 144.493 142.075  0.00  0.00     0.076 A 
HETATM   16  C   UNK     0     146.217 149.386 142.012  0.00  0.00     0.052 C 
HETATM   17  C   UNK     0     151.907 147.611 143.566  0.00  0.00     0.117 A 
HETATM   18  C   UNK     0     151.106 150.577 143.783  0.00  0.00     0.052 C 
HETATM   19  C   UNK     0     151.686 143.606 142.852  0.00  0.00     0.157 A 
HETATM   20  C   UNK     0     149.241 143.010 141.966  0.00  0.00     0.054 A 
HETATM   21  C   UNK     0     150.664 142.566 142.355  0.00  0.00     0.040 A 
ENDROOT
BRANCH  13  22
HETATM   22  O   UNK     0     145.595 146.864 141.406  0.00  0.00    -0.311 OA
BRANCH  22  23
HETATM   23  C   UNK     0     144.902 146.240 140.182  0.00  0.00     0.151 C 
BRANCH  23  24
HETATM   24  C   UNK     0     144.123 144.919 140.328  0.00  0.00     0.030 C 
HETATM   25  C   UNK     0     144.101 143.905 139.168  0.00  0.00     0.003 C 
HETATM   26  C   UNK     0     143.366 144.612 141.633  0.00  0.00     0.003 C 
ENDBRANCH  23  24
ENDBRANCH  22  23
ENDBRANCH  13  22
BRANCH  17  27
HETATM   27  O   UNK     0     152.929 148.650 144.063  0.00  0.00    -0.326 OA
HETATM   28  C   UNK     0     154.203 148.930 143.244  0.00  0.00     0.181 C 
ENDBRANCH  17  27
TORSDOF 4
ENDMDL
MODEL 3
REMARK VINA RESULT:      -8.1      2.407      7.146
REMARK  4 active torsions:
REMARK  status: ('A' for Active; 'I' for Inactive)
REMARK    1  A    between atoms: O_1  and  C_15 
REMARK    2  A    between atoms: O_1  and  C_22 
REMARK    3  A    between atoms: O_2  and  C_19 
REMARK    4  A    between atoms: C_21  and  C_22 
ROOT
HETATM    1  O   UNK     0     152.681 144.623 143.708  0.00  0.00    -0.290 OA
HETATM    2  O   UNK     0     149.118 148.528 144.430  0.00  0.00     0.000 OA
HETATM    3  O   UNK     0     151.194 150.122 146.054  0.00  0.00    -0.223 OA
HETATM    4  O   UNK     0     148.747 149.903 145.016  0.00  0.00     0.000 OA
HETATM    5  N   UNK     0     147.786 144.186 141.632  0.00  0.00    -0.254 NA
HETATM    6  N   UNK     0     150.156 149.325 145.242  0.00  0.00     0.000 N 
HETATM    7  C   UNK     0     149.862 145.779 143.257  0.00  0.00     0.006 A 
HETATM    8  C   UNK     0     150.234 144.404 142.670  0.00  0.00     0.060 A 
HETATM    9  C   UNK     0     148.452 146.357 143.031  0.00  0.00     0.038 A 
HETATM   10  C   UNK     0     150.900 146.575 144.069  0.00  0.00    -0.001 A 
HETATM   11  C   UNK     0     149.196 143.607 141.858  0.00  0.00     0.063 A 
HETATM   12  C   UNK     0     147.414 145.560 142.219  0.00  0.00     0.061 A 
HETATM   13  C   UNK     0     151.643 143.827 142.896  0.00  0.00     0.200 A 
HETATM   14  C   UNK     0     150.528 147.950 144.655  0.00  0.00     0.061 A 
HETATM   15  C   UNK     0     152.310 145.997 144.294  0.00  0.00     0.076 A 
HETATM   16  C   UNK     0     149.567 142.233 141.271  0.00  0.00     0.052 C 
HETATM   17  C   UNK     0     148.080 147.732 143.618  0.00  0.00     0.117 A 
HETATM   18  C   UNK     0     146.005 146.139 141.993  0.00  0.00     0.052 C 
HETATM   19  C   UNK     0     151.566 148.747 145.468  0.00  0.00     0.157 A 
HETATM   20  C   UNK     0     153.347 146.794 145.107  0.00  0.00     0.054 A 
HETATM   21  C   UNK     0     152.976 148.169 145.693  0.00  0.00     0.040 A 
ENDROOT
BRANCH  13  22
HETATM   22  O   UNK     0     152.015 142.452 142.309  0.00  0.00    -0.311 OA
BRANCH  22  23
HETATM   23  C   UNK     0     152.953 141.511 143.087  0.00  0.00     0.151 C 
BRANCH  23  24
HETATM   24  C   UNK     0     152.367 140.364 143.931  0.00  0.00     0.030 C 
HETATM   25  C   UNK     0     153.099 139.890 145.200  0.00  0.00     0.003 C 
HETATM   26  C   UNK     0     151.048 139.692 143.507  0.00  0.00     0.003 C 
ENDBRANCH  23  24
ENDBRANCH  22  23
ENDBRANCH  13  22
BRANCH  17  27
HETATM   27  O   UNK     0     146.671 148.309 143.392  0.00  0.00    -0.326 OA
HETATM   28  C   UNK     0     146.486 149.575 142.533  0.00  0.00     0.181 C 
ENDBRANCH  17  27
TORSDOF 4
ENDMDL
MODEL 4
REMARK VINA RESULT:      -8.1      2.533      7.746
REMARK  4 active torsions:
REMARK  status: ('A' for Active; 'I' for Inactive)
REMARK    1  A    between atoms: O_1  and  C_15 
REMARK    2  A    between atoms: O_1  and  C_22 
REMARK    3  A    between atoms: O_2  and  C_19 
REMARK    4  A    between atoms: C_21  and  C_22 
ROOT
HETATM    1  O   UNK     0     149.727 146.856 141.483  0.00  0.00    -0.290 OA
HETATM    2  O   UNK     0     151.777 149.489 145.645  0.00  0.00     0.000 OA
HETATM    3  O   UNK     0     154.369 147.840 145.411  0.00  0.00    -0.223 OA
HETATM    4  O   UNK     0     152.938 149.734 146.627  0.00  0.00     0.000 OA
HETATM    5  N   UNK     0     146.865 150.644 143.915  0.00  0.00    -0.254 NA
HETATM    6  N   UNK     0     153.073 148.664 145.528  0.00  0.00     0.000 N 
HETATM    7  C   UNK     0     149.456 148.996 143.681  0.00  0.00     0.006 A 
HETATM    8  C   UNK     0     148.296 148.750 142.698  0.00  0.00     0.060 A 
HETATM    9  C   UNK     0     149.321 150.067 144.780  0.00  0.00     0.038 A 
HETATM   10  C   UNK     0     150.752 148.172 143.564  0.00  0.00    -0.001 A 
HETATM   11  C   UNK     0     147.000 149.574 142.815  0.00  0.00     0.063 A 
HETATM   12  C   UNK     0     148.026 150.891 144.897  0.00  0.00     0.061 A 
HETATM   13  C   UNK     0     148.431 147.680 141.600  0.00  0.00     0.200 A 
HETATM   14  C   UNK     0     151.912 148.418 144.546  0.00  0.00     0.061 A 
HETATM   15  C   UNK     0     150.887 147.101 142.465  0.00  0.00     0.076 A 
HETATM   16  C   UNK     0     145.840 149.328 141.834  0.00  0.00     0.052 C 
HETATM   17  C   UNK     0     150.482 150.313 145.762  0.00  0.00     0.117 A 
HETATM   18  C   UNK     0     147.891 151.961 145.996  0.00  0.00     0.052 C 
HETATM   19  C   UNK     0     153.208 147.594 144.429  0.00  0.00     0.157 A 
HETATM   20  C   UNK     0     152.182 146.277 142.348  0.00  0.00     0.054 A 
HETATM   21  C   UNK     0     153.343 146.523 143.330  0.00  0.00     0.040 A 
ENDROOT
BRANCH  13  22
HETATM   22  O   UNK     0     147.270 147.433 140.618  0.00  0.00    -0.311 OA
BRANCH  22  23
HETATM   23  C   UNK     0     146.716 146.011 140.423  0.00  0.00     0.151 C 
BRANCH  23  24
HETATM   24  C   UNK     0     145.315 145.651 140.954  0.00  0.00     0.030 C 
HETATM   25  C   UNK     0     144.089 145.760 140.028  0.00  0.00     0.003 C 
HETATM   26  C   UNK     0     145.141 145.182 142.410  0.00  0.00     0.003 C 
ENDBRANCH  23  24
ENDBRANCH  22  23
ENDBRANCH  13  22
BRANCH  17  27
HETATM   27  O   UNK     0     150.346 151.383 146.861  0.00  0.00    -0.326 OA
HETATM   28  C   UNK     0     151.237 152.639 146.826  0.00  0.00     0.181 C 
ENDBRANCH  17  27
TORSDOF 4
ENDMDL
MODEL 5
REMARK VINA RESULT:      -8.1      1.625      4.256
REMARK  4 active torsions:
REMARK  status: ('A' for Active; 'I' for Inactive)
REMARK    1  A    between atoms: O_1  and  C_15 
REMARK    2  A    between atoms: O_1  and  C_22 
REMARK    3  A    between atoms: O_2  and  C_19 
REMARK    4  A    between atoms: C_21  and  C_22 
ROOT
HETATM    1  O   UNK     0     152.298 147.166 144.711  0.00  0.00    -0.290 OA
HETATM    2  O   UNK     0     148.307 145.413 141.636  0.00  0.00     0.000 OA
HETATM    3  O   UNK     0     149.763 142.723 141.279  0.00  0.00    -0.223 OA
HETATM    4  O   UNK     0     147.673 144.302 140.778  0.00  0.00     0.000 OA
HETATM    5  N   UNK     0     148.118 150.325 143.709  0.00  0.00    -0.254 NA
HETATM    6  N   UNK     0     149.035 144.068 141.457  0.00  0.00     0.000 N 
HETATM    7  C   UNK     0     149.575 147.635 143.352  0.00  0.00     0.006 A 
HETATM    8  C   UNK     0     150.209 148.746 144.210  0.00  0.00     0.060 A 
HETATM    9  C   UNK     0     148.212 147.869 142.672  0.00  0.00     0.038 A 
HETATM   10  C   UNK     0     150.303 146.290 143.174  0.00  0.00    -0.001 A 
HETATM   11  C   UNK     0     149.480 150.091 144.389  0.00  0.00     0.063 A 
HETATM   12  C   UNK     0     147.484 149.214 142.851  0.00  0.00     0.061 A 
HETATM   13  C   UNK     0     151.570 148.511 144.889  0.00  0.00     0.200 A 
HETATM   14  C   UNK     0     149.669 145.179 142.316  0.00  0.00     0.061 A 
HETATM   15  C   UNK     0     151.665 146.055 143.853  0.00  0.00     0.076 A 
HETATM   16  C   UNK     0     150.114 151.201 145.246  0.00  0.00     0.052 C 
HETATM   17  C   UNK     0     147.578 146.758 141.814  0.00  0.00     0.117 A 
HETATM   18  C   UNK     0     146.122 149.449 142.171  0.00  0.00     0.052 C 
HETATM   19  C   UNK     0     150.397 143.834 142.137  0.00  0.00     0.157 A 
HETATM   20  C   UNK     0     152.393 144.710 143.675  0.00  0.00     0.054 A 
HETATM   21  C   UNK     0     151.759 143.599 142.817  0.00  0.00     0.040 A 
ENDROOT
BRANCH  13  22
HETATM   22  O   UNK     0     152.204 149.622 145.747  0.00  0.00    -0.311 OA
BRANCH  22  23
HETATM   23  C   UNK     0     153.610 150.148 145.408  0.00  0.00     0.151 C 
BRANCH  23  24
HETATM   24  C   UNK     0     153.784 151.253 144.349  0.00  0.00     0.030 C 
HETATM   25  C   UNK     0     153.625 150.919 142.854  0.00  0.00     0.003 C 
HETATM   26  C   UNK     0     154.117 152.692 144.785  0.00  0.00     0.003 C 
ENDBRANCH  23  24
ENDBRANCH  22  23
ENDBRANCH  13  22
BRANCH  17  27
HETATM   27  O   UNK     0     146.217 146.993 141.135  0.00  0.00    -0.326 OA
HETATM   28  C   UNK     0     145.073 145.980 141.332  0.00  0.00     0.181 C 
ENDBRANCH  17  27
TORSDOF 4
ENDMDL
MODEL 6
REMARK VINA RESULT:      -7.9      1.795      4.575
REMARK  4 active torsions:
REMARK  status: ('A' for Active; 'I' for Inactive)
REMARK    1  A    between atoms: O_1  and  C_15 
REMARK    2  A    between atoms: O_1  and  C_22 
REMARK    3  A    between atoms: O_2  and  C_19 
REMARK    4  A    between atoms: C_21  and  C_22 
ROOT
HETATM    1  O   UNK     0     151.286 147.660 144.506  0.00  0.00    -0.290 OA
HETATM    2  O   UNK     0     149.114 143.644 141.746  0.00  0.00     0.000 OA
HETATM    3  O   UNK     0     151.718 142.026 142.051  0.00  0.00    -0.223 OA
HETATM    4  O   UNK     0     149.222 142.236 141.133  0.00  0.00     0.000 OA
HETATM    5  N   UNK     0     146.295 148.078 142.669  0.00  0.00    -0.254 NA
HETATM    6  N   UNK     0     150.416 142.835 141.899  0.00  0.00     0.000 N 
HETATM    7  C   UNK     0     148.899 146.461 142.974  0.00  0.00     0.006 A 
HETATM    8  C   UNK     0     148.791 147.869 143.588  0.00  0.00     0.060 A 
HETATM    9  C   UNK     0     147.705 145.861 142.207  0.00  0.00     0.038 A 
HETATM   10  C   UNK     0     150.200 145.652 143.126  0.00  0.00    -0.001 A 
HETATM   11  C   UNK     0     147.489 148.678 143.435  0.00  0.00     0.063 A 
HETATM   12  C   UNK     0     146.403 146.669 142.055  0.00  0.00     0.061 A 
HETATM   13  C   UNK     0     149.984 148.468 144.353  0.00  0.00     0.200 A 
HETATM   14  C   UNK     0     150.308 144.243 142.512  0.00  0.00     0.061 A 
HETATM   15  C   UNK     0     151.394 146.252 143.893  0.00  0.00     0.076 A 
HETATM   16  C   UNK     0     147.381 150.086 144.048  0.00  0.00     0.052 C 
HETATM   17  C   UNK     0     147.813 144.452 141.594  0.00  0.00     0.117 A 
HETATM   18  C   UNK     0     145.209 146.070 141.289  0.00  0.00     0.052 C 
HETATM   19  C   UNK     0     151.610 143.435 142.665  0.00  0.00     0.157 A 
HETATM   20  C   UNK     0     152.696 145.443 144.045  0.00  0.00     0.054 A 
HETATM   21  C   UNK     0     152.804 144.035 143.431  0.00  0.00     0.040 A 
ENDROOT
BRANCH  13  22
HETATM   22  O   UNK     0     149.876 149.877 144.967  0.00  0.00    -0.311 OA
BRANCH  22  23
HETATM   23  C   UNK     0     151.026 150.885 144.787  0.00  0.00     0.151 C 
BRANCH  23  24
HETATM   24  C   UNK     0     151.730 151.014 143.423  0.00  0.00     0.030 C 
HETATM   25  C   UNK     0     153.269 151.030 143.349  0.00  0.00     0.003 C 
HETATM   26  C   UNK     0     150.896 151.126 142.133  0.00  0.00     0.003 C 
ENDBRANCH  23  24
ENDBRANCH  22  23
ENDBRANCH  13  22
BRANCH  17  27
HETATM   27  O   UNK     0     146.619 143.853 140.828  0.00  0.00    -0.326 OA
HETATM   28  C   UNK     0     145.891 142.615 141.383  0.00  0.00     0.181 C 
ENDBRANCH  17  27
TORSDOF 4
ENDMDL
MODEL 7
REMARK VINA RESULT:      -7.8     15.578     19.373
REMARK  4 active torsions:
REMARK  status: ('A' for Active; 'I' for Inactive)
REMARK    1  A    between atoms: O_1  and  C_15 
REMARK    2  A    between atoms: O_1  and  C_22 
REMARK    3  A    between atoms: O_2  and  C_19 
REMARK    4  A    between atoms: C_21  and  C_22 
ROOT
HETATM    1  O   UNK     0     163.609 157.171 136.219  0.00  0.00    -0.290 OA
HETATM    2  O   UNK     0     164.502 160.297 140.449  0.00  0.00     0.000 OA
HETATM    3  O   UNK     0     167.520 160.259 139.840  0.00  0.00    -0.223 OA
HETATM    4  O   UNK     0     165.479 161.069 141.353  0.00  0.00     0.000 OA
HETATM    5  N   UNK     0     159.527 158.791 139.248  0.00  0.00    -0.254 NA
HETATM    6  N   UNK     0     166.011 160.278 140.144  0.00  0.00     0.000 N 
HETATM    7  C   UNK     0     162.546 158.753 138.638  0.00  0.00     0.006 A 
HETATM    8  C   UNK     0     161.568 157.980 137.733  0.00  0.00     0.060 A 
HETATM    9  C   UNK     0     162.014 159.544 139.848  0.00  0.00     0.038 A 
HETATM   10  C   UNK     0     164.055 158.734 138.334  0.00  0.00    -0.001 A 
HETATM   11  C   UNK     0     160.058 157.999 138.038  0.00  0.00     0.063 A 
HETATM   12  C   UNK     0     160.505 159.563 140.153  0.00  0.00     0.061 A 
HETATM   13  C   UNK     0     162.099 157.190 136.524  0.00  0.00     0.200 A 
HETATM   14  C   UNK     0     165.033 159.506 139.239  0.00  0.00     0.061 A 
HETATM   15  C   UNK     0     164.586 157.943 137.124  0.00  0.00     0.076 A 
HETATM   16  C   UNK     0     159.080 157.228 137.133  0.00  0.00     0.052 C 
HETATM   17  C   UNK     0     162.992 160.316 140.754  0.00  0.00     0.117 A 
HETATM   18  C   UNK     0     159.973 160.354 141.363  0.00  0.00     0.052 C 
HETATM   19  C   UNK     0     166.542 159.487 138.934  0.00  0.00     0.157 A 
HETATM   20  C   UNK     0     166.096 157.924 136.819  0.00  0.00     0.054 A 
HETATM   21  C   UNK     0     167.074 158.696 137.724  0.00  0.00     0.040 A 
ENDROOT
BRANCH  13  22
HETATM   22  O   UNK     0     161.121 156.417 135.619  0.00  0.00    -0.311 OA
BRANCH  22  23
HETATM   23  C   UNK     0     161.662 155.512 134.497  0.00  0.00     0.151 C 
BRANCH  23  24
HETATM   24  C   UNK     0     161.688 156.020 133.043  0.00  0.00     0.030 C 
HETATM   25  C   UNK     0     161.016 155.196 131.928  0.00  0.00     0.003 C 
HETATM   26  C   UNK     0     162.384 157.351 132.704  0.00  0.00     0.003 C 
ENDBRANCH  23  24
ENDBRANCH  22  23
ENDBRANCH  13  22
BRANCH  17  27
HETATM   27  O   UNK     0     162.460 161.107 141.963  0.00  0.00    -0.326 OA
HETATM   28  C   UNK     0     162.861 160.691 143.391  0.00  0.00     0.181 C 
ENDBRANCH  17  27
TORSDOF 4
ENDMDL
MODEL 8
REMARK VINA RESULT:      -7.7      1.981      2.737
REMARK  4 active torsions:
REMARK  status: ('A' for Active; 'I' for Inactive)
REMARK    1  A    between atoms: O_1  and  C_15 
REMARK    2  A    between atoms: O_1  and  C_22 
REMARK    3  A    between atoms: O_2  and  C_19 
REMARK    4  A    between atoms: C_21  and  C_22 
ROOT
HETATM    1  O   UNK     0     148.986 147.588 142.947  0.00  0.00    -0.290 OA
HETATM    2  O   UNK     0     147.818 142.685 141.199  0.00  0.00     0.000 OA
HETATM    3  O   UNK     0     145.004 143.643 140.393  0.00  0.00    -0.223 OA
HETATM    4  O   UNK     0     146.822 141.699 140.560  0.00  0.00     0.000 OA
HETATM    5  N   UNK     0     152.623 143.700 143.282  0.00  0.00    -0.254 NA
HETATM    6  N   UNK     0     146.411 143.164 140.796  0.00  0.00     0.000 N 
HETATM    7  C   UNK     0     149.809 144.658 142.476  0.00  0.00     0.006 A 
HETATM    8  C   UNK     0     150.805 145.644 143.115  0.00  0.00     0.060 A 
HETATM    9  C   UNK     0     150.221 143.193 142.240  0.00  0.00     0.038 A 
HETATM   10  C   UNK     0     148.402 145.137 142.073  0.00  0.00    -0.001 A 
HETATM   11  C   UNK     0     152.212 145.165 143.517  0.00  0.00     0.063 A 
HETATM   12  C   UNK     0     151.628 142.714 142.643  0.00  0.00     0.061 A 
HETATM   13  C   UNK     0     150.393 147.109 143.350  0.00  0.00     0.200 A 
HETATM   14  C   UNK     0     147.406 144.150 141.435  0.00  0.00     0.061 A 
HETATM   15  C   UNK     0     147.991 146.602 142.309  0.00  0.00     0.076 A 
HETATM   16  C   UNK     0     153.208 146.151 144.156  0.00  0.00     0.052 C 
HETATM   17  C   UNK     0     149.225 142.206 141.602  0.00  0.00     0.117 A 
HETATM   18  C   UNK     0     152.039 141.248 142.407  0.00  0.00     0.052 C 
HETATM   19  C   UNK     0     145.999 144.629 141.032  0.00  0.00     0.157 A 
HETATM   20  C   UNK     0     146.584 147.081 141.906  0.00  0.00     0.054 A 
HETATM   21  C   UNK     0     145.588 146.095 141.268  0.00  0.00     0.040 A 
ENDROOT
BRANCH  13  22
HETATM   22  O   UNK     0     151.389 148.095 143.989  0.00  0.00    -0.311 OA
BRANCH  22  23
HETATM   23  C   UNK     0     150.924 149.507 144.391  0.00  0.00     0.151 C 
BRANCH  23  24
HETATM   24  C   UNK     0     150.707 150.583 143.310  0.00  0.00     0.030 C 
HETATM   25  C   UNK     0     149.317 151.221 143.126  0.00  0.00     0.003 C 
HETATM   26  C   UNK     0     151.880 151.020 142.413  0.00  0.00     0.003 C 
ENDBRANCH  23  24
ENDBRANCH  22  23
ENDBRANCH  13  22
BRANCH  17  27
HETATM   27  O   UNK     0     149.637 140.741 141.366  0.00  0.00    -0.326 OA
HETATM   28  C   UNK     0     149.784 140.205 139.930  0.00  0.00     0.181 C 
ENDBRANCH  17  27
TORSDOF 4
ENDMDL
MODEL 9
REMARK VINA RESULT:      -7.7      2.412      7.688
REMARK  4 active torsions:
REMARK  status: ('A' for Active; 'I' for Inactive)
REMARK    1  A    between atoms: O_1  and  C_15 
REMARK    2  A    between atoms: O_1  and  C_22 
REMARK    3  A    between atoms: O_2  and  C_19 
REMARK    4  A    between atoms: C_21  and  C_22 
ROOT
HETATM    1  O   UNK     0     152.021 143.496 143.026  0.00  0.00    -0.290 OA
HETATM    2  O   UNK     0     149.983 148.426 143.040  0.00  0.00     0.000 OA
HETATM    3  O   UNK     0     152.630 149.517 144.176  0.00  0.00    -0.223 OA
HETATM    4  O   UNK     0     150.136 149.931 143.327  0.00  0.00     0.000 OA
HETATM    5  N   UNK     0     147.032 144.324 141.328  0.00  0.00    -0.254 NA
HETATM    6  N   UNK     0     151.307 148.972 143.608  0.00  0.00     0.000 N 
HETATM    7  C   UNK     0     149.679 145.415 142.465  0.00  0.00     0.006 A 
HETATM    8  C   UNK     0     149.527 143.910 142.177  0.00  0.00     0.060 A 
HETATM    9  C   UNK     0     148.508 146.375 142.184  0.00  0.00     0.038 A 
HETATM   10  C   UNK     0     151.002 145.961 143.033  0.00  0.00    -0.001 A 
HETATM   11  C   UNK     0     148.204 143.364 141.609  0.00  0.00     0.063 A 
HETATM   12  C   UNK     0     147.185 145.830 141.616  0.00  0.00     0.061 A 
HETATM   13  C   UNK     0     150.698 142.950 142.458  0.00  0.00     0.200 A 
HETATM   14  C   UNK     0     151.155 147.466 143.320  0.00  0.00     0.061 A 
HETATM   15  C   UNK     0     152.174 145.000 143.313  0.00  0.00     0.076 A 
HETATM   16  C   UNK     0     148.051 141.860 141.321  0.00  0.00     0.052 C 
HETATM   17  C   UNK     0     148.660 147.881 142.471  0.00  0.00     0.117 A 
HETATM   18  C   UNK     0     146.013 146.790 141.335  0.00  0.00     0.052 C 
HETATM   19  C   UNK     0     152.478 148.012 143.888  0.00  0.00     0.157 A 
HETATM   20  C   UNK     0     153.497 145.546 143.882  0.00  0.00     0.054 A 
HETATM   21  C   UNK     0     153.649 147.051 144.169  0.00  0.00     0.040 A 
ENDROOT
BRANCH  13  22
HETATM   22  O   UNK     0     150.546 141.445 142.170  0.00  0.00    -0.311 OA
BRANCH  22  23
HETATM   23  C   UNK     0     151.568 140.726 141.271  0.00  0.00     0.151 C 
BRANCH  23  24
HETATM   24  C   UNK     0     151.194 139.396 140.591  0.00  0.00     0.030 C 
HETATM   25  C   UNK     0     150.548 139.401 139.192  0.00  0.00     0.003 C 
HETATM   26  C   UNK     0     151.465 138.061 141.309  0.00  0.00     0.003 C 
ENDBRANCH  23  24
ENDBRANCH  22  23
ENDBRANCH  13  22
BRANCH  17  27
HETATM   27  O   UNK     0     147.489 148.840 142.191  0.00  0.00    -0.326 OA
HETATM   28  C   UNK     0     146.813 149.590 143.354  0.00  0.00     0.181 C 
ENDBRANCH  17  27
TORSDOF 4
ENDMDL
MODEL 10
REMARK VINA RESULT:      -7.6     15.693     19.446
REMARK  4 active torsions:
REMARK  status: ('A' for Active; 'I' for Inactive)
REMARK    1  A    between atoms: O_1  and  C_15 
REMARK    2  A    between atoms: O_1  and  C_22 
REMARK    3  A    between atoms: O_2  and  C_19 
REMARK    4  A    between atoms: C_21  and  C_22 
ROOT
HETATM    1  O   UNK     0     160.687 156.432 134.466  0.00  0.00    -0.290 OA
HETATM    2  O   UNK     0     162.508 160.278 137.684  0.00  0.00     0.000 OA
HETATM    3  O   UNK     0     160.391 159.520 139.788  0.00  0.00    -0.223 OA
HETATM    4  O   UNK     0     162.434 161.050 139.014  0.00  0.00     0.000 OA
HETATM    5  N   UNK     0     164.774 159.490 132.918  0.00  0.00    -0.254 NA
HETATM    6  N   UNK     0     161.450 159.899 138.736  0.00  0.00     0.000 N 
HETATM    7  C   UNK     0     162.656 158.733 135.022  0.00  0.00     0.006 A 
HETATM    8  C   UNK     0     162.730 157.961 133.692  0.00  0.00     0.060 A 
HETATM    9  C   UNK     0     163.641 159.884 135.301  0.00  0.00     0.038 A 
HETATM   10  C   UNK     0     161.598 158.354 136.075  0.00  0.00    -0.001 A 
HETATM   11  C   UNK     0     163.789 158.339 132.640  0.00  0.00     0.063 A 
HETATM   12  C   UNK     0     164.700 160.263 134.249  0.00  0.00     0.061 A 
HETATM   13  C   UNK     0     161.746 156.810 133.414  0.00  0.00     0.200 A 
HETATM   14  C   UNK     0     161.524 159.127 137.405  0.00  0.00     0.061 A 
HETATM   15  C   UNK     0     160.613 157.203 135.796  0.00  0.00     0.076 A 
HETATM   16  C   UNK     0     163.863 157.568 131.310  0.00  0.00     0.052 C 
HETATM   17  C   UNK     0     163.567 160.657 136.631  0.00  0.00     0.117 A 
HETATM   18  C   UNK     0     165.685 161.414 134.527  0.00  0.00     0.052 C 
HETATM   19  C   UNK     0     160.465 158.748 138.457  0.00  0.00     0.157 A 
HETATM   20  C   UNK     0     159.554 156.825 136.848  0.00  0.00     0.054 A 
HETATM   21  C   UNK     0     159.480 157.597 138.179  0.00  0.00     0.040 A 
ENDROOT
BRANCH  13  22
HETATM   22  O   UNK     0     161.820 156.038 132.084  0.00  0.00    -0.311 OA
BRANCH  22  23
HETATM   23  C   UNK     0     161.073 154.701 131.927  0.00  0.00     0.151 C 
BRANCH  23  24
HETATM   24  C   UNK     0     161.779 153.379 132.281  0.00  0.00     0.030 C 
HETATM   25  C   UNK     0     161.363 152.596 133.541  0.00  0.00     0.003 C 
HETATM   26  C   UNK     0     162.900 152.838 131.374  0.00  0.00     0.003 C 
ENDBRANCH  23  24
ENDBRANCH  22  23
ENDBRANCH  13  22
BRANCH  17  27
HETATM   27  O   UNK     0     164.552 161.807 136.909  0.00  0.00    -0.326 OA
HETATM   28  C   UNK     0     165.586 161.678 138.043  0.00  0.00     0.181 C 
ENDBRANCH  17  27
TORSDOF 4
ENDMDL
