MODEL 1
REMARK VINA RESULT:      -7.1      0.000      0.000
REMARK  2 active torsions:
REMARK  status: ('A' for Active; 'I' for Inactive)
REMARK    1  A    between atoms: N_6  and  C_14 
REMARK    2  A    between atoms: C_9  and  C_10 
ROOT
HETATM    1  O   UNK     0     182.659 125.150 218.589  0.00  0.00    -0.168 OA
HETATM    2  N   UNK     0     185.009 125.932 217.775  0.00  0.00    -0.223 NA
HETATM    3  N   UNK     0     185.078 127.594 220.808  0.00  0.00    -0.241 NA
HETATM    4  C   UNK     0     187.017 127.536 218.824  0.00  0.00     0.014 A 
HETATM    5  C   UNK     0     186.382 126.631 217.751  0.00  0.00     0.059 A 
HETATM    6  C   UNK     0     186.437 127.964 220.184  0.00  0.00     0.071 A 
HETATM    7  C   UNK     0     188.473 128.174 218.605  0.00  0.00     0.075 A 
HETATM    8  C   UNK     0     187.158 126.302 216.386  0.00  0.00     0.052 A 
HETATM    9  C   UNK     0     183.964 126.705 220.226  0.00  0.00     0.146 A 
HETATM   10  C   UNK     0     189.277 127.866 217.253  0.00  0.00     0.087 A 
HETATM   11  C   UNK     0     183.934 125.965 218.876  0.00  0.00     0.232 A 
HETATM   12  C   UNK     0     188.615 126.924 216.136  0.00  0.00     0.052 A 
ENDROOT
BRANCH   6  13
HETATM   13  C   UNK     0     187.334 128.884 221.033  0.00  0.00    -0.027 A 
HETATM   14  C   UNK     0     187.464 130.377 220.674  0.00  0.00     0.024 A 
HETATM   15  C   UNK     0     188.361 131.297 221.524  0.00  0.00     0.004 A 
HETATM   16  C   UNK     0     189.127 130.725 222.730  0.00  0.00     0.001 A 
HETATM   17  C   UNK     0     188.998 129.233 223.088  0.00  0.00     0.004 A 
HETATM   18  C   UNK     0     188.101 128.313 222.240  0.00  0.00     0.024 A 
ENDBRANCH   6  13
BRANCH  10  19
HETATM   19  N   UNK     0     190.676 128.471 217.028  0.00  0.00    -0.122 N 
HETATM   20  O   UNK     0     190.843 129.712 216.133  0.00  0.00    -0.532 OA
HETATM   21  O   UNK     0     191.906 127.833 217.698  0.00  0.00    -0.532 OA
ENDBRANCH  10  19
TORSDOF 2
ENDMDL
MODEL 2
REMARK VINA RESULT:      -6.9    105.886    108.452
REMARK  2 active torsions:
REMARK  status: ('A' for Active; 'I' for Inactive)
REMARK    1  A    between atoms: N_6  and  C_14 
REMARK    2  A    between atoms: C_9  and  C_10 
ROOT
HETATM    1  O   UNK     0     161.578 143.276 112.883  0.00  0.00    -0.168 OA
HETATM    2  N   UNK     0     161.604 141.099 114.317  0.00  0.00    -0.223 NA
HETATM    3  N   UNK     0     164.065 140.124 112.090  0.00  0.00    -0.241 NA
HETATM    4  C   UNK     0     163.030 138.719 114.248  0.00  0.00     0.014 A 
HETATM    5  C   UNK     0     161.982 139.693 114.820  0.00  0.00     0.059 A 
HETATM    6  C   UNK     0     163.956 138.911 113.033  0.00  0.00     0.071 A 
HETATM    7  C   UNK     0     163.276 137.285 114.924  0.00  0.00     0.075 A 
HETATM    8  C   UNK     0     161.109 139.300 116.107  0.00  0.00     0.052 A 
HETATM    9  C   UNK     0     163.274 141.444 112.128  0.00  0.00     0.146 A 
HETATM   10  C   UNK     0     162.421 136.860 116.212  0.00  0.00     0.087 A 
HETATM   11  C   UNK     0     162.178 141.878 113.120  0.00  0.00     0.232 A 
HETATM   12  C   UNK     0     161.330 137.875 116.807  0.00  0.00     0.052 A 
ENDROOT
BRANCH   6  13
HETATM   13  C   UNK     0     164.899 137.734 112.720  0.00  0.00    -0.027 A 
HETATM   14  C   UNK     0     166.321 137.708 113.313  0.00  0.00     0.024 A 
HETATM   15  C   UNK     0     167.263 136.530 112.999  0.00  0.00     0.004 A 
HETATM   16  C   UNK     0     166.785 135.381 112.093  0.00  0.00     0.001 A 
HETATM   17  C   UNK     0     165.364 135.408 111.500  0.00  0.00     0.004 A 
HETATM   18  C   UNK     0     164.421 136.584 111.814  0.00  0.00     0.024 A 
ENDBRANCH   6  13
BRANCH  10  19
HETATM   19  N   UNK     0     162.645 135.487 116.873  0.00  0.00    -0.122 N 
HETATM   20  O   UNK     0     163.897 135.243 117.735  0.00  0.00    -0.532 OA
HETATM   21  O   UNK     0     161.617 134.359 116.671  0.00  0.00    -0.532 OA
ENDBRANCH  10  19
TORSDOF 2
ENDMDL
MODEL 3
REMARK VINA RESULT:      -6.9     92.600     94.815
REMARK  2 active torsions:
REMARK  status: ('A' for Active; 'I' for Inactive)
REMARK    1  A    between atoms: N_6  and  C_14 
REMARK    2  A    between atoms: C_9  and  C_10 
ROOT
HETATM    1  O   UNK     0     164.432 161.440 129.329  0.00  0.00    -0.168 OA
HETATM    2  N   UNK     0     163.485 160.658 131.629  0.00  0.00    -0.223 NA
HETATM    3  N   UNK     0     163.546 157.530 130.152  0.00  0.00    -0.241 NA
HETATM    4  C   UNK     0     162.726 158.219 132.712  0.00  0.00     0.014 A 
HETATM    5  C   UNK     0     162.945 159.743 132.744  0.00  0.00     0.059 A 
HETATM    6  C   UNK     0     162.993 157.234 131.559  0.00  0.00     0.071 A 
HETATM    7  C   UNK     0     162.148 157.444 133.993  0.00  0.00     0.075 A 
HETATM    8  C   UNK     0     162.601 160.597 134.057  0.00  0.00     0.052 A 
HETATM    9  C   UNK     0     163.967 158.884 129.551  0.00  0.00     0.146 A 
HETATM   10  C   UNK     0     161.793 158.267 135.322  0.00  0.00     0.087 A 
HETATM   11  C   UNK     0     163.940 160.276 130.208  0.00  0.00     0.232 A 
HETATM   12  C   UNK     0     162.021 159.854 135.355  0.00  0.00     0.052 A 
ENDROOT
BRANCH   6  13
HETATM   13  C   UNK     0     162.665 155.758 131.852  0.00  0.00    -0.027 A 
HETATM   14  C   UNK     0     163.784 154.792 132.287  0.00  0.00     0.024 A 
HETATM   15  C   UNK     0     163.455 153.316 132.579  0.00  0.00     0.004 A 
HETATM   16  C   UNK     0     162.009 152.806 132.436  0.00  0.00     0.001 A 
HETATM   17  C   UNK     0     160.892 153.771 132.000  0.00  0.00     0.004 A 
HETATM   18  C   UNK     0     161.220 155.247 131.708  0.00  0.00     0.024 A 
ENDBRANCH   6  13
BRANCH  10  19
HETATM   19  N   UNK     0     161.237 157.538 136.560  0.00  0.00    -0.122 N 
HETATM   20  O   UNK     0     160.250 156.369 136.386  0.00  0.00    -0.532 OA
HETATM   21  O   UNK     0     161.669 157.978 137.971  0.00  0.00    -0.532 OA
ENDBRANCH  10  19
TORSDOF 2
ENDMDL
MODEL 4
REMARK VINA RESULT:      -6.4     90.213     92.264
REMARK  2 active torsions:
REMARK  status: ('A' for Active; 'I' for Inactive)
REMARK    1  A    between atoms: N_6  and  C_14 
REMARK    2  A    between atoms: C_9  and  C_10 
ROOT
HETATM    1  O   UNK     0     161.040 160.492 141.544  0.00  0.00    -0.168 OA
HETATM    2  N   UNK     0     160.957 158.792 139.569  0.00  0.00    -0.223 NA
HETATM    3  N   UNK     0     162.578 161.314 137.842  0.00  0.00    -0.241 NA
HETATM    4  C   UNK     0     161.813 158.807 136.929  0.00  0.00     0.014 A 
HETATM    5  C   UNK     0     161.149 158.179 138.168  0.00  0.00     0.059 A 
HETATM    6  C   UNK     0     162.449 160.202 136.783  0.00  0.00     0.071 A 
HETATM    7  C   UNK     0     161.914 157.995 135.549  0.00  0.00     0.075 A 
HETATM    8  C   UNK     0     160.540 156.696 138.114  0.00  0.00     0.052 A 
HETATM    9  C   UNK     0     162.103 161.305 139.306  0.00  0.00     0.146 A 
HETATM   10  C   UNK     0     161.315 156.510 135.459  0.00  0.00     0.087 A 
HETATM   11  C   UNK     0     161.382 160.183 140.075  0.00  0.00     0.232 A 
HETATM   12  C   UNK     0     160.624 155.857 136.750  0.00  0.00     0.052 A 
ENDROOT
BRANCH   6  13
HETATM   13  C   UNK     0     163.033 160.528 135.396  0.00  0.00    -0.027 A 
HETATM   14  C   UNK     0     162.097 160.930 134.241  0.00  0.00     0.024 A 
HETATM   15  C   UNK     0     162.682 161.257 132.854  0.00  0.00     0.004 A 
HETATM   16  C   UNK     0     164.202 161.182 132.623  0.00  0.00     0.001 A 
HETATM   17  C   UNK     0     165.138 160.780 133.777  0.00  0.00     0.004 A 
HETATM   18  C   UNK     0     164.554 160.454 135.164  0.00  0.00     0.024 A 
ENDBRANCH   6  13
BRANCH  10  19
HETATM   19  N   UNK     0     161.404 155.717 134.141  0.00  0.00    -0.122 N 
HETATM   20  O   UNK     0     161.523 154.182 134.174  0.00  0.00    -0.532 OA
HETATM   21  O   UNK     0     161.373 156.460 132.793  0.00  0.00    -0.532 OA
ENDBRANCH  10  19
TORSDOF 2
ENDMDL
MODEL 5
REMARK VINA RESULT:      -6.4    105.035    107.591
REMARK  2 active torsions:
REMARK  status: ('A' for Active; 'I' for Inactive)
REMARK    1  A    between atoms: N_6  and  C_14 
REMARK    2  A    between atoms: C_9  and  C_10 
ROOT
HETATM    1  O   UNK     0     160.128 141.973 115.145  0.00  0.00    -0.168 OA
HETATM    2  N   UNK     0     160.745 139.596 116.018  0.00  0.00    -0.223 NA
HETATM    3  N   UNK     0     163.059 139.678 113.447  0.00  0.00    -0.241 NA
HETATM    4  C   UNK     0     162.583 137.651 115.282  0.00  0.00     0.014 A 
HETATM    5  C   UNK     0     161.446 138.229 116.144  0.00  0.00     0.059 A 
HETATM    6  C   UNK     0     163.301 138.295 114.082  0.00  0.00     0.071 A 
HETATM    7  C   UNK     0     163.181 136.192 115.579  0.00  0.00     0.075 A 
HETATM    8  C   UNK     0     160.827 137.389 117.363  0.00  0.00     0.052 A 
HETATM    9  C   UNK     0     162.039 140.757 113.855  0.00  0.00     0.146 A 
HETATM   10  C   UNK     0     162.587 135.325 116.790  0.00  0.00     0.087 A 
HETATM   11  C   UNK     0     161.010 140.720 115.000  0.00  0.00     0.232 A 
HETATM   12  C   UNK     0     161.402 135.928 117.687  0.00  0.00     0.052 A 
ENDROOT
BRANCH   6  13
HETATM   13  C   UNK     0     164.408 137.445 113.430  0.00  0.00    -0.027 A 
HETATM   14  C   UNK     0     164.049 136.423 112.335  0.00  0.00     0.024 A 
HETATM   15  C   UNK     0     165.157 135.573 111.684  0.00  0.00     0.004 A 
HETATM   16  C   UNK     0     166.621 135.746 112.127  0.00  0.00     0.001 A 
HETATM   17  C   UNK     0     166.979 136.767 113.221  0.00  0.00     0.004 A 
HETATM   18  C   UNK     0     165.873 137.617 113.873  0.00  0.00     0.024 A 
ENDBRANCH   6  13
BRANCH  10  19
HETATM   19  N   UNK     0     163.150 133.922 117.089  0.00  0.00    -0.122 N 
HETATM   20  O   UNK     0     163.115 132.832 116.003  0.00  0.00    -0.532 OA
HETATM   21  O   UNK     0     163.747 133.612 118.474  0.00  0.00    -0.532 OA
ENDBRANCH  10  19
TORSDOF 2
ENDMDL
MODEL 6
REMARK VINA RESULT:      -6.4     61.254     63.050
REMARK  2 active torsions:
REMARK  status: ('A' for Active; 'I' for Inactive)
REMARK    1  A    between atoms: N_6  and  C_14 
REMARK    2  A    between atoms: C_9  and  C_10 
ROOT
HETATM    1  O   UNK     0     153.110 154.071 174.992  0.00  0.00    -0.168 OA
HETATM    2  N   UNK     0     154.111 151.900 173.951  0.00  0.00    -0.223 NA
HETATM    3  N   UNK     0     153.838 153.660 170.985  0.00  0.00    -0.241 NA
HETATM    4  C   UNK     0     154.794 151.086 171.388  0.00  0.00     0.014 A 
HETATM    5  C   UNK     0     154.651 150.901 172.910  0.00  0.00     0.059 A 
HETATM    6  C   UNK     0     154.432 152.313 170.531  0.00  0.00     0.071 A 
HETATM    7  C   UNK     0     155.386 149.912 170.468  0.00  0.00     0.075 A 
HETATM    8  C   UNK     0     155.090 149.530 173.618  0.00  0.00     0.052 A 
HETATM    9  C   UNK     0     153.460 154.112 172.408  0.00  0.00     0.146 A 
HETATM   10  C   UNK     0     155.834 148.528 171.143  0.00  0.00     0.087 A 
HETATM   11  C   UNK     0     153.581 153.328 173.728  0.00  0.00     0.232 A 
HETATM   12  C   UNK     0     155.685 148.336 172.729  0.00  0.00     0.052 A 
ENDROOT
BRANCH   6  13
HETATM   13  C   UNK     0     154.700 152.176 169.021  0.00  0.00    -0.027 A 
HETATM   14  C   UNK     0     153.582 151.683 168.082  0.00  0.00     0.024 A 
HETATM   15  C   UNK     0     153.851 151.547 166.572  0.00  0.00     0.004 A 
HETATM   16  C   UNK     0     155.235 151.903 166.000  0.00  0.00     0.001 A 
HETATM   17  C   UNK     0     156.352 152.396 166.938  0.00  0.00     0.004 A 
HETATM   18  C   UNK     0     156.085 152.532 168.449  0.00  0.00     0.024 A 
ENDBRANCH   6  13
BRANCH  10  19
HETATM   19  N   UNK     0     156.404 147.391 170.275  0.00  0.00    -0.122 N 
HETATM   20  O   UNK     0     155.632 146.066 170.137  0.00  0.00    -0.532 OA
HETATM   21  O   UNK     0     157.747 147.579 169.545  0.00  0.00    -0.532 OA
ENDBRANCH  10  19
TORSDOF 2
ENDMDL
MODEL 7
REMARK VINA RESULT:      -6.3    103.346    104.767
REMARK  2 active torsions:
REMARK  status: ('A' for Active; 'I' for Inactive)
REMARK    1  A    between atoms: N_6  and  C_14 
REMARK    2  A    between atoms: C_9  and  C_10 
ROOT
HETATM    1  O   UNK     0     122.600 181.889 151.544  0.00  0.00    -0.168 OA
HETATM    2  N   UNK     0     124.705 180.544 150.796  0.00  0.00    -0.223 NA
HETATM    3  N   UNK     0     122.798 177.805 151.707  0.00  0.00    -0.241 NA
HETATM    4  C   UNK     0     125.380 177.854 150.690  0.00  0.00     0.014 A 
HETATM    5  C   UNK     0     125.643 179.359 150.498  0.00  0.00     0.059 A 
HETATM    6  C   UNK     0     124.114 177.162 151.229  0.00  0.00     0.071 A 
HETATM    7  C   UNK     0     126.499 176.768 150.315  0.00  0.00     0.075 A 
HETATM    8  C   UNK     0     127.044 179.882 149.917  0.00  0.00     0.052 A 
HETATM    9  C   UNK     0     122.424 179.297 151.766  0.00  0.00     0.146 A 
HETATM   10  C   UNK     0     127.911 177.256 149.732  0.00  0.00     0.087 A 
HETATM   11  C   UNK     0     123.273 180.516 151.361  0.00  0.00     0.232 A 
HETATM   12  C   UNK     0     128.185 178.823 149.531  0.00  0.00     0.052 A 
ENDROOT
BRANCH   6  13
HETATM   13  C   UNK     0     124.170 175.625 151.297  0.00  0.00    -0.027 A 
HETATM   14  C   UNK     0     123.312 174.779 150.338  0.00  0.00     0.024 A 
HETATM   15  C   UNK     0     123.369 173.241 150.407  0.00  0.00     0.004 A 
HETATM   16  C   UNK     0     124.284 172.550 151.435  0.00  0.00     0.001 A 
HETATM   17  C   UNK     0     125.142 173.396 152.393  0.00  0.00     0.004 A 
HETATM   18  C   UNK     0     125.086 174.933 152.325  0.00  0.00     0.024 A 
ENDBRANCH   6  13
BRANCH  10  19
HETATM   19  N   UNK     0     128.996 176.226 149.366  0.00  0.00    -0.122 N 
HETATM   20  O   UNK     0     128.644 175.018 148.478  0.00  0.00    -0.532 OA
HETATM   21  O   UNK     0     130.433 176.404 149.889  0.00  0.00    -0.532 OA
ENDBRANCH  10  19
TORSDOF 2
ENDMDL
MODEL 8
REMARK VINA RESULT:      -6.1    107.376    109.660
REMARK  2 active torsions:
REMARK  status: ('A' for Active; 'I' for Inactive)
REMARK    1  A    between atoms: N_6  and  C_14 
REMARK    2  A    between atoms: C_9  and  C_10 
ROOT
HETATM    1  O   UNK     0     144.726 145.695 124.392  0.00  0.00    -0.168 OA
HETATM    2  N   UNK     0     144.455 145.374 121.819  0.00  0.00    -0.223 NA
HETATM    3  N   UNK     0     147.749 146.429 121.733  0.00  0.00    -0.241 NA
HETATM    4  C   UNK     0     146.108 145.706 119.615  0.00  0.00     0.014 A 
HETATM    5  C   UNK     0     144.785 145.343 120.315  0.00  0.00     0.059 A 
HETATM    6  C   UNK     0     147.427 146.189 120.246  0.00  0.00     0.071 A 
HETATM    7  C   UNK     0     146.249 145.607 118.020  0.00  0.00     0.075 A 
HETATM    8  C   UNK     0     143.512 144.855 119.469  0.00  0.00     0.052 A 
HETATM    9  C   UNK     0     146.832 146.244 122.956  0.00  0.00     0.146 A 
HETATM   10  C   UNK     0     144.997 145.123 117.143  0.00  0.00     0.087 A 
HETATM   11  C   UNK     0     145.366 145.774 122.994  0.00  0.00     0.232 A 
HETATM   12  C   UNK     0     143.620 144.745 117.872  0.00  0.00     0.052 A 
ENDROOT
BRANCH   6  13
HETATM   13  C   UNK     0     148.576 146.470 119.260  0.00  0.00    -0.027 A 
HETATM   14  C   UNK     0     149.096 147.908 119.073  0.00  0.00     0.024 A 
HETATM   15  C   UNK     0     150.245 148.188 118.086  0.00  0.00     0.004 A 
HETATM   16  C   UNK     0     150.873 147.032 117.287  0.00  0.00     0.001 A 
HETATM   17  C   UNK     0     150.354 145.595 117.474  0.00  0.00     0.004 A 
HETATM   18  C   UNK     0     149.205 145.314 118.460  0.00  0.00     0.024 A 
ENDBRANCH   6  13
BRANCH  10  19
HETATM   19  N   UNK     0     145.117 145.022 115.610  0.00  0.00    -0.122 N 
HETATM   20  O   UNK     0     145.532 143.691 114.957  0.00  0.00    -0.532 OA
HETATM   21  O   UNK     0     144.820 146.252 114.733  0.00  0.00    -0.532 OA
ENDBRANCH  10  19
TORSDOF 2
ENDMDL
MODEL 9
REMARK VINA RESULT:      -6.1     78.952     81.389
REMARK  2 active torsions:
REMARK  status: ('A' for Active; 'I' for Inactive)
REMARK    1  A    between atoms: N_6  and  C_14 
REMARK    2  A    between atoms: C_9  and  C_10 
ROOT
HETATM    1  O   UNK     0     157.206 135.244 149.318  0.00  0.00    -0.168 OA
HETATM    2  N   UNK     0     156.074 136.851 147.606  0.00  0.00    -0.223 NA
HETATM    3  N   UNK     0     153.264 134.941 148.259  0.00  0.00    -0.241 NA
HETATM    4  C   UNK     0     153.522 137.107 146.544  0.00  0.00     0.014 A 
HETATM    5  C   UNK     0     155.003 137.501 146.710  0.00  0.00     0.059 A 
HETATM    6  C   UNK     0     152.749 135.968 147.234  0.00  0.00     0.071 A 
HETATM    7  C   UNK     0     152.561 137.920 145.549  0.00  0.00     0.075 A 
HETATM    8  C   UNK     0     155.623 138.733 145.892  0.00  0.00     0.052 A 
HETATM    9  C   UNK     0     154.680 134.799 148.848  0.00  0.00     0.146 A 
HETATM   10  C   UNK     0     153.149 139.157 144.716  0.00  0.00     0.087 A 
HETATM   11  C   UNK     0     155.931 135.649 148.557  0.00  0.00     0.232 A 
HETATM   12  C   UNK     0     154.690 139.567 144.889  0.00  0.00     0.052 A 
ENDROOT
BRANCH   6  13
HETATM   13  C   UNK     0     151.264 135.839 146.847  0.00  0.00    -0.027 A 
HETATM   14  C   UNK     0     150.867 135.109 145.550  0.00  0.00     0.024 A 
HETATM   15  C   UNK     0     149.381 134.981 145.164  0.00  0.00     0.004 A 
HETATM   16  C   UNK     0     148.294 135.581 146.074  0.00  0.00     0.001 A 
HETATM   17  C   UNK     0     148.691 136.311 147.370  0.00  0.00     0.004 A 
HETATM   18  C   UNK     0     150.176 136.440 147.757  0.00  0.00     0.024 A 
ENDBRANCH   6  13
BRANCH  10  19
HETATM   19  N   UNK     0     152.239 139.948 143.757  0.00  0.00    -0.122 N 
HETATM   20  O   UNK     0     152.698 141.312 143.210  0.00  0.00    -0.532 OA
HETATM   21  O   UNK     0     150.871 139.373 143.345  0.00  0.00    -0.532 OA
ENDBRANCH  10  19
TORSDOF 2
ENDMDL
MODEL 10
REMARK VINA RESULT:      -5.9     86.989     88.939
REMARK  2 active torsions:
REMARK  status: ('A' for Active; 'I' for Inactive)
REMARK    1  A    between atoms: N_6  and  C_14 
REMARK    2  A    between atoms: C_9  and  C_10 
ROOT
HETATM    1  O   UNK     0     159.825 159.171 137.471  0.00  0.00    -0.168 OA
HETATM    2  N   UNK     0     162.357 158.565 137.325  0.00  0.00    -0.223 NA
HETATM    3  N   UNK     0     162.639 160.777 139.971  0.00  0.00    -0.241 NA
HETATM    4  C   UNK     0     164.639 159.320 138.713  0.00  0.00     0.014 A 
HETATM    5  C   UNK     0     163.866 158.541 137.632  0.00  0.00     0.059 A 
HETATM    6  C   UNK     0     164.093 160.315 139.754  0.00  0.00     0.071 A 
HETATM    7  C   UNK     0     166.227 159.154 138.871  0.00  0.00     0.075 A 
HETATM    8  C   UNK     0     164.628 157.542 136.635  0.00  0.00     0.052 A 
HETATM    9  C   UNK     0     161.373 160.358 139.201  0.00  0.00     0.146 A 
HETATM   10  C   UNK     0     167.020 158.163 137.891  0.00  0.00     0.087 A 
HETATM   11  C   UNK     0     161.248 159.374 138.023  0.00  0.00     0.232 A 
HETATM   12  C   UNK     0     166.215 157.352 136.765  0.00  0.00     0.052 A 
ENDROOT
BRANCH   6  13
HETATM   13  C   UNK     0     165.138 160.929 140.703  0.00  0.00    -0.027 A 
HETATM   14  C   UNK     0     165.511 160.205 142.011  0.00  0.00     0.024 A 
HETATM   15  C   UNK     0     166.557 160.820 142.960  0.00  0.00     0.004 A 
HETATM   16  C   UNK     0     167.228 162.158 142.602  0.00  0.00     0.001 A 
HETATM   17  C   UNK     0     166.856 162.882 141.295  0.00  0.00     0.004 A 
HETATM   18  C   UNK     0     165.811 162.268 140.346  0.00  0.00     0.024 A 
ENDBRANCH   6  13
BRANCH  10  19
HETATM   19  N   UNK     0     168.544 157.992 138.030  0.00  0.00    -0.122 N 
HETATM   20  O   UNK     0     169.496 158.835 137.161  0.00  0.00    -0.532 OA
HETATM   21  O   UNK     0     169.116 156.978 139.037  0.00  0.00    -0.532 OA
ENDBRANCH  10  19
TORSDOF 2
ENDMDL
