MODEL 1
REMARK VINA RESULT:      -7.6      0.000      0.000
REMARK  1 active torsions:
REMARK  status: ('A' for Active; 'I' for Inactive)
REMARK    1  A    between atoms: C_3  and  C_9 
ROOT
HETATM    1  C   UNK     0     163.696 159.963 140.614  0.00  0.00     0.013 A 
HETATM    2  N   UNK     0     165.466 159.284 138.952  0.00  0.00    -0.241 NA
HETATM    3  C   UNK     0     164.942 159.885 140.256  0.00  0.00     0.071 A 
HETATM    4  N   UNK     0     162.006 158.940 138.804  0.00  0.00    -0.223 NA
HETATM    5  C   UNK     0     162.339 159.540 139.970  0.00  0.00     0.059 A 
HETATM    6  C   UNK     0     162.984 158.482 137.719  0.00  0.00     0.232 A 
HETATM    7  C   UNK     0     163.677 160.642 141.996  0.00  0.00     0.062 A 
HETATM    8  C   UNK     0     164.593 158.649 137.802  0.00  0.00     0.146 A 
HETATM    9  C   UNK     0     161.012 159.800 140.709  0.00  0.00     0.051 A 
HETATM   10  O   UNK     0     162.389 157.821 136.471  0.00  0.00    -0.168 OA
HETATM   11  C   UNK     0     162.354 160.898 142.726  0.00  0.00     0.018 A 
HETATM   12  C   UNK     0     161.022 160.477 142.083  0.00  0.00     0.040 A 
HETATM   13 Cl   UNK     0     162.354 161.584 144.118  0.00  0.00    -0.091 Cl
ENDROOT
BRANCH   3  14
HETATM   14  C   UNK     0     165.983 160.448 141.233  0.00  0.00    -0.027 A 
HETATM   15  C   UNK     0     166.393 161.924 141.155  0.00  0.00     0.024 A 
HETATM   16  C   UNK     0     167.431 162.495 142.125  0.00  0.00     0.004 A 
HETATM   17  C   UNK     0     168.063 161.571 143.187  0.00  0.00     0.001 A 
HETATM   18  C   UNK     0     167.666 160.085 143.284  0.00  0.00     0.004 A 
HETATM   19  C   UNK     0     166.615 159.525 142.294  0.00  0.00     0.024 A 
ENDBRANCH   3  14
TORSDOF 1
ENDMDL
MODEL 2
REMARK VINA RESULT:      -7.5      2.792      4.079
REMARK  1 active torsions:
REMARK  status: ('A' for Active; 'I' for Inactive)
REMARK    1  A    between atoms: C_3  and  C_9 
ROOT
HETATM    1  C   UNK     0     164.431 160.360 140.798  0.00  0.00     0.013 A 
HETATM    2  N   UNK     0     163.497 161.580 142.797  0.00  0.00    -0.241 NA
HETATM    3  C   UNK     0     164.597 161.109 141.846  0.00  0.00     0.071 A 
HETATM    4  N   UNK     0     161.879 159.653 140.393  0.00  0.00    -0.223 NA
HETATM    5  C   UNK     0     163.202 159.683 140.115  0.00  0.00     0.059 A 
HETATM    6  C   UNK     0     161.194 160.349 141.571  0.00  0.00     0.232 A 
HETATM    7  C   UNK     0     165.825 160.163 140.173  0.00  0.00     0.062 A 
HETATM    8  C   UNK     0     161.961 161.244 142.683  0.00  0.00     0.146 A 
HETATM    9  C   UNK     0     163.388 158.837 138.841  0.00  0.00     0.051 A 
HETATM   10  O   UNK     0     159.676 160.183 141.699  0.00  0.00    -0.168 OA
HETATM   11  C   UNK     0     166.004 159.320 138.905  0.00  0.00     0.018 A 
HETATM   12  C   UNK     0     164.786 158.657 138.240  0.00  0.00     0.040 A 
HETATM   13 Cl   UNK     0     167.415 159.132 138.289  0.00  0.00    -0.091 Cl
ENDROOT
BRANCH   3  14
HETATM   14  C   UNK     0     166.030 161.563 142.156  0.00  0.00    -0.027 A 
HETATM   15  C   UNK     0     166.882 160.785 143.168  0.00  0.00     0.024 A 
HETATM   16  C   UNK     0     168.312 161.230 143.484  0.00  0.00     0.004 A 
HETATM   17  C   UNK     0     168.894 162.471 142.775  0.00  0.00     0.001 A 
HETATM   18  C   UNK     0     168.056 163.267 141.755  0.00  0.00     0.004 A 
HETATM   19  C   UNK     0     166.611 162.803 141.448  0.00  0.00     0.024 A 
ENDBRANCH   3  14
TORSDOF 1
ENDMDL
MODEL 3
REMARK VINA RESULT:      -7.4     16.741     19.542
REMARK  1 active torsions:
REMARK  status: ('A' for Active; 'I' for Inactive)
REMARK    1  A    between atoms: C_3  and  C_9 
ROOT
HETATM    1  C   UNK     0     151.393 147.209 142.531  0.00  0.00     0.013 A 
HETATM    2  N   UNK     0     150.949 149.641 142.030  0.00  0.00    -0.241 NA
HETATM    3  C   UNK     0     150.666 148.139 141.988  0.00  0.00     0.071 A 
HETATM    4  N   UNK     0     153.551 148.157 143.803  0.00  0.00    -0.223 NA
HETATM    5  C   UNK     0     152.712 147.192 143.363  0.00  0.00     0.059 A 
HETATM    6  C   UNK     0     153.392 149.661 143.565  0.00  0.00     0.232 A 
HETATM    7  C   UNK     0     150.700 145.870 142.217  0.00  0.00     0.062 A 
HETATM    8  C   UNK     0     152.174 150.338 142.737  0.00  0.00     0.146 A 
HETATM    9  C   UNK     0     153.303 145.858 143.857  0.00  0.00     0.051 A 
HETATM   10  O   UNK     0     154.464 150.583 144.156  0.00  0.00    -0.168 OA
HETATM   11  C   UNK     0     151.292 144.546 142.711  0.00  0.00     0.018 A 
HETATM   12  C   UNK     0     152.594 144.540 143.531  0.00  0.00     0.040 A 
HETATM   13 Cl   UNK     0     150.581 143.206 142.386  0.00  0.00    -0.091 Cl
ENDROOT
BRANCH   3  14
HETATM   14  C   UNK     0     149.406 147.687 141.237  0.00  0.00    -0.027 A 
HETATM   15  C   UNK     0     149.531 146.973 139.884  0.00  0.00     0.024 A 
HETATM   16  C   UNK     0     148.281 146.519 139.127  0.00  0.00     0.004 A 
HETATM   17  C   UNK     0     146.888 146.784 139.736  0.00  0.00     0.001 A 
HETATM   18  C   UNK     0     146.739 147.500 141.093  0.00  0.00     0.004 A 
HETATM   19  C   UNK     0     148.015 147.953 141.845  0.00  0.00     0.024 A 
ENDBRANCH   3  14
TORSDOF 1
ENDMDL
MODEL 4
REMARK VINA RESULT:      -7.3     18.936     21.022
REMARK  1 active torsions:
REMARK  status: ('A' for Active; 'I' for Inactive)
REMARK    1  A    between atoms: C_3  and  C_9 
ROOT
HETATM    1  C   UNK     0     149.254 147.646 143.913  0.00  0.00     0.013 A 
HETATM    2  N   UNK     0     147.594 149.544 143.926  0.00  0.00    -0.241 NA
HETATM    3  C   UNK     0     148.179 148.213 143.454  0.00  0.00     0.071 A 
HETATM    4  N   UNK     0     150.448 149.051 145.857  0.00  0.00    -0.223 NA
HETATM    5  C   UNK     0     150.305 148.008 145.008  0.00  0.00     0.059 A 
HETATM    6  C   UNK     0     149.511 150.258 145.960  0.00  0.00     0.232 A 
HETATM    7  C   UNK     0     149.429 146.334 143.127  0.00  0.00     0.062 A 
HETATM    8  C   UNK     0     148.186 150.474 145.054  0.00  0.00     0.146 A 
HETATM    9  C   UNK     0     151.491 147.066 145.290  0.00  0.00     0.051 A 
HETATM   10  O   UNK     0     149.860 151.331 146.996  0.00  0.00    -0.168 OA
HETATM   11  C   UNK     0     150.611 145.400 143.412  0.00  0.00     0.018 A 
HETATM   12  C   UNK     0     151.641 145.766 144.493  0.00  0.00     0.040 A 
HETATM   13 Cl   UNK     0     150.771 144.082 142.610  0.00  0.00    -0.091 Cl
ENDROOT
BRANCH   3  14
HETATM   14  C   UNK     0     147.429 147.478 142.336  0.00  0.00    -0.027 A 
HETATM   15  C   UNK     0     147.784 147.743 140.867  0.00  0.00     0.024 A 
HETATM   16  C   UNK     0     147.040 147.014 139.744  0.00  0.00     0.004 A 
HETATM   17  C   UNK     0     145.928 146.007 140.101  0.00  0.00     0.001 A 
HETATM   18  C   UNK     0     145.555 145.725 141.570  0.00  0.00     0.004 A 
HETATM   19  C   UNK     0     146.317 146.471 142.693  0.00  0.00     0.024 A 
ENDBRANCH   3  14
TORSDOF 1
ENDMDL
MODEL 5
REMARK VINA RESULT:      -7.1      3.814      5.551
REMARK  1 active torsions:
REMARK  status: ('A' for Active; 'I' for Inactive)
REMARK    1  A    between atoms: C_3  and  C_9 
ROOT
HETATM    1  C   UNK     0     162.168 158.834 137.174  0.00  0.00     0.013 A 
HETATM    2  N   UNK     0     160.728 156.902 137.915  0.00  0.00    -0.241 NA
HETATM    3  C   UNK     0     161.443 158.243 138.075  0.00  0.00     0.071 A 
HETATM    4  N   UNK     0     162.336 157.461 134.879  0.00  0.00    -0.223 NA
HETATM    5  C   UNK     0     162.591 158.498 135.710  0.00  0.00     0.059 A 
HETATM    6  C   UNK     0     161.481 156.235 135.211  0.00  0.00     0.232 A 
HETATM    7  C   UNK     0     162.669 160.147 137.804  0.00  0.00     0.062 A 
HETATM    8  C   UNK     0     160.738 155.988 136.630  0.00  0.00     0.146 A 
HETATM    9  C   UNK     0     163.490 159.466 134.918  0.00  0.00     0.051 A 
HETATM   10  O   UNK     0     161.323 155.172 134.119  0.00  0.00    -0.168 OA
HETATM   11  C   UNK     0     163.563 161.106 137.011  0.00  0.00     0.018 A 
HETATM   12  C   UNK     0     163.974 160.766 135.568  0.00  0.00     0.040 A 
HETATM   13 Cl   UNK     0     164.058 162.425 137.661  0.00  0.00    -0.091 Cl
ENDROOT
BRANCH   3  14
HETATM   14  C   UNK     0     161.291 158.959 139.424  0.00  0.00    -0.027 A 
HETATM   15  C   UNK     0     159.963 159.635 139.791  0.00  0.00     0.024 A 
HETATM   16  C   UNK     0     159.802 160.352 141.134  0.00  0.00     0.004 A 
HETATM   17  C   UNK     0     160.988 160.389 142.120  0.00  0.00     0.001 A 
HETATM   18  C   UNK     0     162.330 159.717 141.772  0.00  0.00     0.004 A 
HETATM   19  C   UNK     0     162.476 158.996 140.409  0.00  0.00     0.024 A 
ENDBRANCH   3  14
TORSDOF 1
ENDMDL
MODEL 6
REMARK VINA RESULT:      -7.1     55.614     57.119
REMARK  1 active torsions:
REMARK  status: ('A' for Active; 'I' for Inactive)
REMARK    1  A    between atoms: C_3  and  C_9 
ROOT
HETATM    1  C   UNK     0     159.404 159.004 196.993  0.00  0.00     0.013 A 
HETATM    2  N   UNK     0     157.814 160.052 198.646  0.00  0.00    -0.241 NA
HETATM    3  C   UNK     0     158.708 158.944 198.088  0.00  0.00     0.071 A 
HETATM    4  N   UNK     0     159.153 161.338 195.701  0.00  0.00    -0.223 NA
HETATM    5  C   UNK     0     159.623 160.083 195.888  0.00  0.00     0.059 A 
HETATM    6  C   UNK     0     158.188 162.080 196.629  0.00  0.00     0.232 A 
HETATM    7  C   UNK     0     160.132 157.653 196.861  0.00  0.00     0.062 A 
HETATM    8  C   UNK     0     157.572 161.469 197.998  0.00  0.00     0.146 A 
HETATM    9  C   UNK     0     160.551 159.795 194.692  0.00  0.00     0.051 A 
HETATM   10  O   UNK     0     157.781 163.502 196.226  0.00  0.00    -0.168 OA
HETATM   11  C   UNK     0     161.053 157.372 195.668  0.00  0.00     0.018 A 
HETATM   12  C   UNK     0     161.262 158.443 194.585  0.00  0.00     0.040 A 
HETATM   13 Cl   UNK     0     161.778 156.006 195.551  0.00  0.00    -0.091 Cl
ENDROOT
BRANCH   3  14
HETATM   14  C   UNK     0     158.791 157.642 198.895  0.00  0.00    -0.027 A 
HETATM   15  C   UNK     0     159.991 157.382 199.815  0.00  0.00     0.024 A 
HETATM   16  C   UNK     0     160.084 156.085 200.625  0.00  0.00     0.004 A 
HETATM   17  C   UNK     0     158.957 155.038 200.508  0.00  0.00     0.001 A 
HETATM   18  C   UNK     0     157.743 155.278 199.589  0.00  0.00     0.004 A 
HETATM   19  C   UNK     0     157.666 156.595 198.778  0.00  0.00     0.024 A 
ENDBRANCH   3  14
TORSDOF 1
ENDMDL
MODEL 7
REMARK VINA RESULT:      -7.0      6.409      9.062
REMARK  1 active torsions:
REMARK  status: ('A' for Active; 'I' for Inactive)
REMARK    1  A    between atoms: C_3  and  C_9 
ROOT
HETATM    1  C   UNK     0     161.837 157.988 134.903  0.00  0.00     0.013 A 
HETATM    2  N   UNK     0     160.971 156.033 136.240  0.00  0.00    -0.241 NA
HETATM    3  C   UNK     0     161.593 156.718 135.023  0.00  0.00     0.071 A 
HETATM    4  N   UNK     0     161.133 159.412 137.061  0.00  0.00    -0.223 NA
HETATM    5  C   UNK     0     161.636 159.236 135.817  0.00  0.00     0.059 A 
HETATM    6  C   UNK     0     160.580 158.310 137.968  0.00  0.00     0.232 A 
HETATM    7  C   UNK     0     162.461 158.186 133.509  0.00  0.00     0.062 A 
HETATM    8  C   UNK     0     160.510 156.740 137.573  0.00  0.00     0.146 A 
HETATM    9  C   UNK     0     162.057 160.635 135.328  0.00  0.00     0.051 A 
HETATM   10  O   UNK     0     160.057 158.732 139.345  0.00  0.00    -0.168 OA
HETATM   11  C   UNK     0     162.877 159.580 133.028  0.00  0.00     0.018 A 
HETATM   12  C   UNK     0     162.676 160.804 133.937  0.00  0.00     0.040 A 
HETATM   13 Cl   UNK     0     163.505 159.761 131.620  0.00  0.00    -0.091 Cl
ENDROOT
BRANCH   3  14
HETATM   14  C   UNK     0     161.964 155.823 133.834  0.00  0.00    -0.027 A 
HETATM   15  C   UNK     0     160.925 155.515 132.748  0.00  0.00     0.024 A 
HETATM   16  C   UNK     0     161.286 154.623 131.557  0.00  0.00     0.004 A 
HETATM   17  C   UNK     0     162.708 154.034 131.455  0.00  0.00     0.001 A 
HETATM   18  C   UNK     0     163.768 154.330 132.534  0.00  0.00     0.004 A 
HETATM   19  C   UNK     0     163.386 155.234 133.732  0.00  0.00     0.024 A 
ENDBRANCH   3  14
TORSDOF 1
ENDMDL
MODEL 8
REMARK VINA RESULT:      -6.8     16.147     18.426
REMARK  1 active torsions:
REMARK  status: ('A' for Active; 'I' for Inactive)
REMARK    1  A    between atoms: C_3  and  C_9 
ROOT
HETATM    1  C   UNK     0     150.553 147.734 143.202  0.00  0.00     0.013 A 
HETATM    2  N   UNK     0     149.148 149.824 143.066  0.00  0.00    -0.241 NA
HETATM    3  C   UNK     0     150.417 149.018 143.345  0.00  0.00     0.071 A 
HETATM    4  N   UNK     0     148.327 146.522 142.332  0.00  0.00    -0.223 NA
HETATM    5  C   UNK     0     149.615 146.575 142.741  0.00  0.00     0.059 A 
HETATM    6  C   UNK     0     147.376 147.715 142.208  0.00  0.00     0.232 A 
HETATM    7  C   UNK     0     152.000 147.397 143.605  0.00  0.00     0.062 A 
HETATM    8  C   UNK     0     147.772 149.248 142.553  0.00  0.00     0.146 A 
HETATM    9  C   UNK     0     150.135 145.126 142.694  0.00  0.00     0.051 A 
HETATM   10  O   UNK     0     145.951 147.430 141.722  0.00  0.00    -0.168 OA
HETATM   11  C   UNK     0     152.512 145.954 143.555  0.00  0.00     0.018 A 
HETATM   12  C   UNK     0     151.580 144.818 143.100  0.00  0.00     0.040 A 
HETATM   13 Cl   UNK     0     153.974 145.633 143.965  0.00  0.00    -0.091 Cl
ENDROOT
BRANCH   3  14
HETATM   14  C   UNK     0     151.643 149.796 143.841  0.00  0.00    -0.027 A 
HETATM   15  C   UNK     0     152.025 149.765 145.326  0.00  0.00     0.024 A 
HETATM   16  C   UNK     0     153.247 150.538 145.830  0.00  0.00     0.004 A 
HETATM   17  C   UNK     0     154.095 151.351 144.830  0.00  0.00     0.001 A 
HETATM   18  C   UNK     0     153.729 151.396 143.333  0.00  0.00     0.004 A 
HETATM   19  C   UNK     0     152.490 150.608 142.841  0.00  0.00     0.024 A 
ENDBRANCH   3  14
TORSDOF 1
ENDMDL
MODEL 9
REMARK VINA RESULT:      -6.8      2.904      5.417
REMARK  1 active torsions:
REMARK  status: ('A' for Active; 'I' for Inactive)
REMARK    1  A    between atoms: C_3  and  C_9 
ROOT
HETATM    1  C   UNK     0     163.865 160.581 140.817  0.00  0.00     0.013 A 
HETATM    2  N   UNK     0     166.032 160.552 139.527  0.00  0.00    -0.241 NA
HETATM    3  C   UNK     0     164.520 160.417 139.707  0.00  0.00     0.071 A 
HETATM    4  N   UNK     0     165.437 161.209 142.893  0.00  0.00    -0.223 NA
HETATM    5  C   UNK     0     164.260 160.942 142.282  0.00  0.00     0.059 A 
HETATM    6  C   UNK     0     166.813 161.222 142.223  0.00  0.00     0.232 A 
HETATM    7  C   UNK     0     162.379 160.340 140.491  0.00  0.00     0.062 A 
HETATM    8  C   UNK     0     167.075 160.914 140.654  0.00  0.00     0.146 A 
HETATM    9  C   UNK     0     163.180 161.054 143.375  0.00  0.00     0.051 A 
HETATM   10  O   UNK     0     168.022 161.551 143.105  0.00  0.00    -0.168 OA
HETATM   11  C   UNK     0     161.309 160.453 141.581  0.00  0.00     0.018 A 
HETATM   12  C   UNK     0     161.709 160.810 143.023  0.00  0.00     0.040 A 
HETATM   13 Cl   UNK     0     159.816 160.207 141.235  0.00  0.00    -0.091 Cl
ENDROOT
BRANCH   3  14
HETATM   14  C   UNK     0     163.699 160.054 138.463  0.00  0.00    -0.027 A 
HETATM   15  C   UNK     0     163.295 158.597 138.204  0.00  0.00     0.024 A 
HETATM   16  C   UNK     0     162.476 158.225 136.965  0.00  0.00     0.004 A 
HETATM   17  C   UNK     0     162.057 159.331 135.974  0.00  0.00     0.001 A 
HETATM   18  C   UNK     0     162.451 160.801 136.214  0.00  0.00     0.004 A 
HETATM   19  C   UNK     0     163.280 161.159 137.472  0.00  0.00     0.024 A 
ENDBRANCH   3  14
TORSDOF 1
ENDMDL
MODEL 10
REMARK VINA RESULT:      -6.8      4.572      8.184
REMARK  1 active torsions:
REMARK  status: ('A' for Active; 'I' for Inactive)
REMARK    1  A    between atoms: C_3  and  C_9 
ROOT
HETATM    1  C   UNK     0     162.713 157.697 136.677  0.00  0.00     0.013 A 
HETATM    2  N   UNK     0     160.206 157.958 136.600  0.00  0.00    -0.241 NA
HETATM    3  C   UNK     0     161.560 157.412 136.150  0.00  0.00     0.071 A 
HETATM    4  N   UNK     0     162.545 159.412 138.729  0.00  0.00    -0.223 NA
HETATM    5  C   UNK     0     163.188 158.606 137.852  0.00  0.00     0.059 A 
HETATM    6  C   UNK     0     161.035 159.652 138.784  0.00  0.00     0.232 A 
HETATM    7  C   UNK     0     163.768 156.905 135.882  0.00  0.00     0.062 A 
HETATM    8  C   UNK     0     159.957 158.969 137.786  0.00  0.00     0.146 A 
HETATM    9  C   UNK     0     164.684 158.703 138.205  0.00  0.00     0.051 A 
HETATM   10  O   UNK     0     160.515 160.609 139.862  0.00  0.00    -0.168 OA
HETATM   11  C   UNK     0     165.255 157.006 136.237  0.00  0.00     0.018 A 
HETATM   12  C   UNK     0     165.713 157.904 137.399  0.00  0.00     0.040 A 
HETATM   13 Cl   UNK     0     166.304 156.201 135.426  0.00  0.00    -0.091 Cl
ENDROOT
BRANCH   3  14
HETATM   14  C   UNK     0     161.560 156.435 134.966  0.00  0.00    -0.027 A 
HETATM   15  C   UNK     0     161.602 156.968 133.528  0.00  0.00     0.024 A 
HETATM   16  C   UNK     0     161.602 156.002 132.340  0.00  0.00     0.004 A 
HETATM   17  C   UNK     0     161.559 154.482 132.600  0.00  0.00     0.001 A 
HETATM   18  C   UNK     0     161.516 153.924 134.037  0.00  0.00     0.004 A 
HETATM   19  C   UNK     0     161.516 154.916 135.226  0.00  0.00     0.024 A 
ENDBRANCH   3  14
TORSDOF 1
ENDMDL
