MODEL 1
REMARK VINA RESULT:      -8.1      0.000      0.000
REMARK  0 active torsions:
REMARK  status: ('A' for Active; 'I' for Inactive)
ROOT
HETATM    1  O   UNK     0     171.827 159.560 141.968  0.00  0.00    -0.304 OA
HETATM    2  O   UNK     0     177.194 159.114 141.352  0.00  0.00    -0.152 OA
HETATM    3  N   UNK     0     175.376 158.248 143.216  0.00  0.00     0.418 N 
HETATM    4  N   UNK     0     174.488 159.565 141.296  0.00  0.00     0.440 N 
HETATM    5  C   UNK     0     173.852 158.374 143.391  0.00  0.00     0.326 A 
HETATM    6  C   UNK     0     173.934 157.560 144.695  0.00  0.00    -0.009 A 
HETATM    7  C   UNK     0     172.427 158.243 143.960  0.00  0.00     0.031 A 
HETATM    8  C   UNK     0     173.303 159.188 142.204  0.00  0.00     0.424 A 
HETATM    9  C   UNK     0     175.769 158.983 141.921  0.00  0.00     0.663 A 
HETATM   10  C   UNK     0     173.016 157.017 145.807  0.00  0.00    -0.032 A 
HETATM   11  C   UNK     0     171.239 158.883 143.217  0.00  0.00     0.072 A 
HETATM   12  C   UNK     0     175.449 157.294 144.749  0.00  0.00     0.024 A 
HETATM   13  C   UNK     0     172.190 157.473 145.272  0.00  0.00    -0.027 A 
HETATM   14  C   UNK     0     169.814 158.751 143.787  0.00  0.00     0.051 A 
HETATM   15  C   UNK     0     173.615 156.209 146.973  0.00  0.00     0.025 A 
HETATM   16  C   UNK     0     176.048 156.485 145.915  0.00  0.00     0.005 A 
HETATM   17  C   UNK     0     170.765 157.342 145.841  0.00  0.00     0.026 A 
HETATM   18  C   UNK     0     169.577 157.981 145.099  0.00  0.00     0.011 A 
HETATM   19  C   UNK     0     175.131 155.942 147.027  0.00  0.00     0.005 A 
ENDROOT
TORSDOF 0
ENDMDL
MODEL 2
REMARK VINA RESULT:      -8.0     39.613     41.581
REMARK  0 active torsions:
REMARK  status: ('A' for Active; 'I' for Inactive)
ROOT
HETATM    1  O   UNK     0     136.518 152.875 164.787  0.00  0.00    -0.304 OA
HETATM    2  O   UNK     0     132.059 154.869 162.435  0.00  0.00    -0.152 OA
HETATM    3  N   UNK     0     134.500 153.993 161.538  0.00  0.00     0.418 N 
HETATM    4  N   UNK     0     134.101 153.907 163.996  0.00  0.00     0.440 N 
HETATM    5  C   UNK     0     135.767 153.427 162.206  0.00  0.00     0.326 A 
HETATM    6  C   UNK     0     136.437 153.299 160.825  0.00  0.00    -0.009 A 
HETATM    7  C   UNK     0     137.179 152.849 162.415  0.00  0.00     0.031 A 
HETATM    8  C   UNK     0     135.520 153.374 163.725  0.00  0.00     0.424 A 
HETATM    9  C   UNK     0     133.471 154.290 162.644  0.00  0.00     0.663 A 
HETATM   10  C   UNK     0     137.765 152.837 160.198  0.00  0.00    -0.032 A 
HETATM   11  C   UNK     0     137.671 152.514 163.835  0.00  0.00     0.072 A 
HETATM   12  C   UNK     0     135.307 153.834 159.928  0.00  0.00     0.024 A 
HETATM   13  C   UNK     0     138.098 152.605 161.204  0.00  0.00    -0.027 A 
HETATM   14  C   UNK     0     139.083 151.935 164.044  0.00  0.00     0.051 A 
HETATM   15  C   UNK     0     137.962 152.910 158.672  0.00  0.00     0.025 A 
HETATM   16  C   UNK     0     135.504 153.908 158.402  0.00  0.00     0.005 A 
HETATM   17  C   UNK     0     139.510 152.027 161.413  0.00  0.00     0.026 A 
HETATM   18  C   UNK     0     140.002 151.692 162.832  0.00  0.00     0.011 A 
HETATM   19  C   UNK     0     136.831 153.445 157.774  0.00  0.00     0.005 A 
ENDROOT
TORSDOF 0
ENDMDL
MODEL 3
REMARK VINA RESULT:      -7.9     39.512     40.987
REMARK  0 active torsions:
REMARK  status: ('A' for Active; 'I' for Inactive)
ROOT
HETATM    1  O   UNK     0     136.737 153.937 162.847  0.00  0.00    -0.304 OA
HETATM    2  O   UNK     0     132.979 157.231 160.747  0.00  0.00    -0.152 OA
HETATM    3  N   UNK     0     134.660 155.312 159.737  0.00  0.00     0.418 N 
HETATM    4  N   UNK     0     134.783 155.748 162.187  0.00  0.00     0.440 N 
HETATM    5  C   UNK     0     135.727 154.376 160.333  0.00  0.00     0.326 A 
HETATM    6  C   UNK     0     135.993 153.790 158.935  0.00  0.00    -0.009 A 
HETATM    7  C   UNK     0     136.825 153.305 160.468  0.00  0.00     0.031 A 
HETATM    8  C   UNK     0     135.803 154.646 161.847  0.00  0.00     0.424 A 
HETATM    9  C   UNK     0     134.076 156.160 160.882  0.00  0.00     0.663 A 
HETATM   10  C   UNK     0     136.884 152.738 158.247  0.00  0.00    -0.032 A 
HETATM   11  C   UNK     0     137.440 153.002 161.848  0.00  0.00     0.072 A 
HETATM   12  C   UNK     0     134.988 154.609 158.104  0.00  0.00     0.024 A 
HETATM   13  C   UNK     0     137.307 152.536 159.224  0.00  0.00    -0.027 A 
HETATM   14  C   UNK     0     138.538 151.931 161.982  0.00  0.00     0.051 A 
HETATM   15  C   UNK     0     136.769 152.506 156.729  0.00  0.00     0.025 A 
HETATM   16  C   UNK     0     134.874 154.377 156.586  0.00  0.00     0.005 A 
HETATM   17  C   UNK     0     138.405 151.464 159.360  0.00  0.00     0.026 A 
HETATM   18  C   UNK     0     139.020 151.162 160.738  0.00  0.00     0.011 A 
HETATM   19  C   UNK     0     135.764 153.326 155.898  0.00  0.00     0.005 A 
ENDROOT
TORSDOF 0
ENDMDL
MODEL 4
REMARK VINA RESULT:      -7.8     38.656     40.530
REMARK  0 active torsions:
REMARK  status: ('A' for Active; 'I' for Inactive)
ROOT
HETATM    1  O   UNK     0     135.762 140.982 151.113  0.00  0.00    -0.304 OA
HETATM    2  O   UNK     0     139.613 139.085 147.803  0.00  0.00    -0.152 OA
HETATM    3  N   UNK     0     137.980 141.289 147.817  0.00  0.00     0.418 N 
HETATM    4  N   UNK     0     137.744 139.695 149.718  0.00  0.00     0.440 N 
HETATM    5  C   UNK     0     136.886 141.829 148.757  0.00  0.00     0.326 A 
HETATM    6  C   UNK     0     136.684 143.039 147.827  0.00  0.00    -0.009 A 
HETATM    7  C   UNK     0     135.783 142.715 149.364  0.00  0.00     0.031 A 
HETATM    8  C   UNK     0     136.740 140.843 149.932  0.00  0.00     0.424 A 
HETATM    9  C   UNK     0     138.510 139.971 148.410  0.00  0.00     0.663 A 
HETATM   10  C   UNK     0     135.825 144.313 147.720  0.00  0.00    -0.032 A 
HETATM   11  C   UNK     0     135.105 142.305 150.685  0.00  0.00     0.072 A 
HETATM   12  C   UNK     0     137.726 142.719 146.740  0.00  0.00     0.024 A 
HETATM   13  C   UNK     0     135.358 144.012 148.651  0.00  0.00    -0.027 A 
HETATM   14  C   UNK     0     134.002 143.193 151.292  0.00  0.00     0.051 A 
HETATM   15  C   UNK     0     136.009 145.267 146.525  0.00  0.00     0.025 A 
HETATM   16  C   UNK     0     137.910 143.673 145.545  0.00  0.00     0.005 A 
HETATM   17  C   UNK     0     134.255 144.898 149.258  0.00  0.00     0.026 A 
HETATM   18  C   UNK     0     133.577 144.489 150.578  0.00  0.00     0.011 A 
HETATM   19  C   UNK     0     137.052 144.946 145.437  0.00  0.00     0.005 A 
ENDROOT
TORSDOF 0
ENDMDL
MODEL 5
REMARK VINA RESULT:      -7.7     39.728     42.496
REMARK  0 active torsions:
REMARK  status: ('A' for Active; 'I' for Inactive)
ROOT
HETATM    1  O   UNK     0     134.771 152.579 166.704  0.00  0.00    -0.304 OA
HETATM    2  O   UNK     0     133.107 153.721 161.673  0.00  0.00    -0.152 OA
HETATM    3  N   UNK     0     135.488 152.957 162.803  0.00  0.00     0.418 N 
HETATM    4  N   UNK     0     133.543 153.228 164.337  0.00  0.00     0.440 N 
HETATM    5  C   UNK     0     135.961 152.632 164.232  0.00  0.00     0.326 A 
HETATM    6  C   UNK     0     137.378 152.351 163.699  0.00  0.00    -0.009 A 
HETATM    7  C   UNK     0     136.848 152.237 165.427  0.00  0.00     0.031 A 
HETATM    8  C   UNK     0     134.759 152.800 165.180  0.00  0.00     0.424 A 
HETATM    9  C   UNK     0     133.994 153.325 162.868  0.00  0.00     0.663 A 
HETATM   10  C   UNK     0     138.767 151.926 164.210  0.00  0.00    -0.032 A 
HETATM   11  C   UNK     0     136.251 152.185 166.846  0.00  0.00     0.072 A 
HETATM   12  C   UNK     0     137.159 152.621 162.200  0.00  0.00     0.024 A 
HETATM   13  C   UNK     0     138.332 151.894 165.203  0.00  0.00    -0.027 A 
HETATM   14  C   UNK     0     137.138 151.789 168.040  0.00  0.00     0.051 A 
HETATM   15  C   UNK     0     139.937 151.772 163.221  0.00  0.00     0.025 A 
HETATM   16  C   UNK     0     138.329 152.467 161.210  0.00  0.00     0.005 A 
HETATM   17  C   UNK     0     139.220 151.498 166.398  0.00  0.00     0.026 A 
HETATM   18  C   UNK     0     138.623 151.446 167.817  0.00  0.00     0.011 A 
HETATM   19  C   UNK     0     139.718 152.043 161.721  0.00  0.00     0.005 A 
ENDROOT
TORSDOF 0
ENDMDL
MODEL 6
REMARK VINA RESULT:      -7.6     39.614     42.420
REMARK  0 active torsions:
REMARK  status: ('A' for Active; 'I' for Inactive)
ROOT
HETATM    1  O   UNK     0     135.975 153.176 161.436  0.00  0.00    -0.304 OA
HETATM    2  O   UNK     0     132.270 153.593 165.370  0.00  0.00    -0.152 OA
HETATM    3  N   UNK     0     134.910 152.854 165.261  0.00  0.00     0.418 N 
HETATM    4  N   UNK     0     133.832 153.516 163.115  0.00  0.00     0.440 N 
HETATM    5  C   UNK     0     135.963 152.735 164.144  0.00  0.00     0.326 A 
HETATM    6  C   UNK     0     137.005 152.266 165.176  0.00  0.00    -0.009 A 
HETATM    7  C   UNK     0     137.286 152.478 163.400  0.00  0.00     0.031 A 
HETATM    8  C   UNK     0     135.296 153.144 162.818  0.00  0.00     0.424 A 
HETATM    9  C   UNK     0     133.593 153.336 164.626  0.00  0.00     0.663 A 
HETATM   10  C   UNK     0     138.481 151.831 165.248  0.00  0.00    -0.032 A 
HETATM   11  C   UNK     0     137.370 152.703 161.878  0.00  0.00     0.072 A 
HETATM   12  C   UNK     0     136.150 152.301 166.456  0.00  0.00     0.024 A 
HETATM   13  C   UNK     0     138.525 151.994 164.176  0.00  0.00    -0.027 A 
HETATM   14  C   UNK     0     138.694 152.446 161.135  0.00  0.00     0.051 A 
HETATM   15  C   UNK     0     139.100 151.431 166.599  0.00  0.00     0.025 A 
HETATM   16  C   UNK     0     136.770 151.901 167.807  0.00  0.00     0.005 A 
HETATM   17  C   UNK     0     139.848 151.737 163.432  0.00  0.00     0.026 A 
HETATM   18  C   UNK     0     139.933 151.962 161.912  0.00  0.00     0.011 A 
HETATM   19  C   UNK     0     138.245 151.466 167.880  0.00  0.00     0.005 A 
ENDROOT
TORSDOF 0
ENDMDL
MODEL 7
REMARK VINA RESULT:      -7.4     26.818     29.282
REMARK  0 active torsions:
REMARK  status: ('A' for Active; 'I' for Inactive)
ROOT
HETATM    1  O   UNK     0     147.329 142.380 140.925  0.00  0.00    -0.304 OA
HETATM    2  O   UNK     0     151.678 144.409 143.447  0.00  0.00    -0.152 OA
HETATM    3  N   UNK     0     149.340 145.456 142.465  0.00  0.00     0.418 N 
HETATM    4  N   UNK     0     149.677 143.002 142.204  0.00  0.00     0.440 N 
HETATM    5  C   UNK     0     148.104 144.881 141.749  0.00  0.00     0.326 A 
HETATM    6  C   UNK     0     147.484 146.289 141.686  0.00  0.00    -0.009 A 
HETATM    7  C   UNK     0     146.738 144.767 141.048  0.00  0.00     0.031 A 
HETATM    8  C   UNK     0     148.313 143.364 141.587  0.00  0.00     0.424 A 
HETATM    9  C   UNK     0     150.311 144.296 142.746  0.00  0.00     0.663 A 
HETATM   10  C   UNK     0     146.215 146.997 141.177  0.00  0.00    -0.032 A 
HETATM   11  C   UNK     0     146.235 143.397 140.558  0.00  0.00     0.072 A 
HETATM   12  C   UNK     0     148.593 147.101 142.381  0.00  0.00     0.024 A 
HETATM   13  C   UNK     0     145.874 146.025 140.838  0.00  0.00    -0.027 A 
HETATM   14  C   UNK     0     144.868 143.284 139.857  0.00  0.00     0.051 A 
HETATM   15  C   UNK     0     146.054 148.517 141.363  0.00  0.00     0.025 A 
HETATM   16  C   UNK     0     148.432 148.621 142.567  0.00  0.00     0.005 A 
HETATM   17  C   UNK     0     144.507 145.912 140.137  0.00  0.00     0.026 A 
HETATM   18  C   UNK     0     144.005 144.542 139.646  0.00  0.00     0.011 A 
HETATM   19  C   UNK     0     147.163 149.329 142.058  0.00  0.00     0.005 A 
ENDROOT
TORSDOF 0
ENDMDL
MODEL 8
REMARK VINA RESULT:      -7.3     38.917     41.846
REMARK  0 active torsions:
REMARK  status: ('A' for Active; 'I' for Inactive)
ROOT
HETATM    1  O   UNK     0     132.392 154.227 160.951  0.00  0.00    -0.304 OA
HETATM    2  O   UNK     0     137.373 153.668 163.015  0.00  0.00    -0.152 OA
HETATM    3  N   UNK     0     136.319 153.745 160.483  0.00  0.00     0.418 N 
HETATM    4  N   UNK     0     134.721 153.975 162.380  0.00  0.00     0.440 N 
HETATM    5  C   UNK     0     134.905 153.904 159.896  0.00  0.00     0.326 A 
HETATM    6  C   UNK     0     135.484 153.807 158.473  0.00  0.00    -0.009 A 
HETATM    7  C   UNK     0     133.737 154.025 158.898  0.00  0.00     0.031 A 
HETATM    8  C   UNK     0     133.917 154.046 161.069  0.00  0.00     0.424 A 
HETATM    9  C   UNK     0     136.206 153.789 162.017  0.00  0.00     0.663 A 
HETATM   10  C   UNK     0     135.017 153.834 157.005  0.00  0.00    -0.032 A 
HETATM   11  C   UNK     0     132.298 154.209 159.416  0.00  0.00     0.072 A 
HETATM   12  C   UNK     0     136.978 153.633 158.802  0.00  0.00     0.024 A 
HETATM   13  C   UNK     0     134.010 153.963 157.384  0.00  0.00    -0.027 A 
HETATM   14  C   UNK     0     131.132 154.330 158.417  0.00  0.00     0.051 A 
HETATM   15  C   UNK     0     136.045 153.688 155.868  0.00  0.00     0.025 A 
HETATM   16  C   UNK     0     138.006 153.487 157.665  0.00  0.00     0.005 A 
HETATM   17  C   UNK     0     132.842 154.084 156.387  0.00  0.00     0.026 A 
HETATM   18  C   UNK     0     131.404 154.267 156.903  0.00  0.00     0.011 A 
HETATM   19  C   UNK     0     137.540 153.515 156.198  0.00  0.00     0.005 A 
ENDROOT
TORSDOF 0
ENDMDL
MODEL 9
REMARK VINA RESULT:      -7.3     39.484     42.479
REMARK  0 active torsions:
REMARK  status: ('A' for Active; 'I' for Inactive)
ROOT
HETATM    1  O   UNK     0     138.452 151.792 165.613  0.00  0.00    -0.304 OA
HETATM    2  O   UNK     0     133.412 153.029 167.180  0.00  0.00    -0.152 OA
HETATM    3  N   UNK     0     134.761 153.048 164.791  0.00  0.00     0.418 N 
HETATM    4  N   UNK     0     136.033 152.308 166.801  0.00  0.00     0.440 N 
HETATM    5  C   UNK     0     136.193 152.696 164.345  0.00  0.00     0.326 A 
HETATM    6  C   UNK     0     135.831 153.063 162.894  0.00  0.00    -0.009 A 
HETATM    7  C   UNK     0     137.443 152.475 163.473  0.00  0.00     0.031 A 
HETATM    8  C   UNK     0     136.978 152.239 165.588  0.00  0.00     0.424 A 
HETATM    9  C   UNK     0     134.662 152.808 166.308  0.00  0.00     0.663 A 
HETATM   10  C   UNK     0     136.474 153.117 161.496  0.00  0.00    -0.032 A 
HETATM   11  C   UNK     0     138.749 151.969 164.114  0.00  0.00     0.072 A 
HETATM   12  C   UNK     0     134.359 153.473 163.080  0.00  0.00     0.024 A 
HETATM   13  C   UNK     0     137.387 152.760 161.961  0.00  0.00    -0.027 A 
HETATM   14  C   UNK     0     139.998 151.748 163.241  0.00  0.00     0.051 A 
HETATM   15  C   UNK     0     135.645 153.582 160.284  0.00  0.00     0.025 A 
HETATM   16  C   UNK     0     133.529 153.937 161.868  0.00  0.00     0.005 A 
HETATM   17  C   UNK     0     138.637 152.539 161.089  0.00  0.00     0.026 A 
HETATM   18  C   UNK     0     139.942 152.033 161.729  0.00  0.00     0.011 A 
HETATM   19  C   UNK     0     134.172 153.992 160.471  0.00  0.00     0.005 A 
ENDROOT
TORSDOF 0
ENDMDL
MODEL 10
REMARK VINA RESULT:      -7.2     12.074     13.641
REMARK  0 active torsions:
REMARK  status: ('A' for Active; 'I' for Inactive)
ROOT
HETATM    1  O   UNK     0     163.840 159.595 135.420  0.00  0.00    -0.304 OA
HETATM    2  O   UNK     0     159.440 156.536 136.240  0.00  0.00    -0.152 OA
HETATM    3  N   UNK     0     160.724 158.507 137.653  0.00  0.00     0.418 N 
HETATM    4  N   UNK     0     161.705 157.871 135.452  0.00  0.00     0.440 N 
HETATM    5  C   UNK     0     161.974 159.376 137.420  0.00  0.00     0.326 A 
HETATM    6  C   UNK     0     161.742 160.070 138.775  0.00  0.00    -0.009 A 
HETATM    7  C   UNK     0     163.091 160.417 137.617  0.00  0.00     0.031 A 
HETATM    8  C   UNK     0     162.580 158.983 136.060  0.00  0.00     0.424 A 
HETATM    9  C   UNK     0     160.558 157.577 136.437  0.00  0.00     0.663 A 
HETATM   10  C   UNK     0     162.369 161.162 139.663  0.00  0.00    -0.032 A 
HETATM   11  C   UNK     0     164.175 160.597 136.538  0.00  0.00     0.072 A 
HETATM   12  C   UNK     0     160.472 159.336 139.239  0.00  0.00     0.024 A 
HETATM   13  C   UNK     0     163.125 161.278 138.894  0.00  0.00    -0.027 A 
HETATM   14  C   UNK     0     165.292 161.639 136.735  0.00  0.00     0.051 A 
HETATM   15  C   UNK     0     161.724 161.518 141.015  0.00  0.00     0.025 A 
HETATM   16  C   UNK     0     159.827 159.692 140.592  0.00  0.00     0.005 A 
HETATM   17  C   UNK     0     164.242 162.319 139.091  0.00  0.00     0.026 A 
HETATM   18  C   UNK     0     165.325 162.500 138.012  0.00  0.00     0.011 A 
HETATM   19  C   UNK     0     160.453 160.783 141.480  0.00  0.00     0.005 A 
ENDROOT
TORSDOF 0
ENDMDL
