REMARK  2 active torsions:
REMARK  status: ('A' for Active; 'I' for Inactive)
REMARK    1  A    between atoms: C_1  and  C_2 
REMARK    2  A    between atoms: C_1  and  C_5 
ROOT
HETATM    1  C   UNK     0      -0.643   1.510   0.000  0.00  0.00     0.035 A 
HETATM    2  C   UNK     0      -1.960   2.309   0.000  0.00  0.00     0.120 A 
HETATM    3  N   UNK     0      -3.310   1.569   0.000  0.00  0.00    -0.296 NA
HETATM    4  C   UNK     0      -0.677  -0.029   0.000  0.00  0.00     0.004 A 
HETATM    5  C   UNK     0      -2.027  -0.770   0.000  0.00  0.00     0.024 A 
HETATM    6  C   UNK     0      -3.344   0.029   0.000  0.00  0.00     0.120 A 
HETATM    7  C   UNK     0      -2.061  -2.309   0.000  0.00  0.00     0.002 C 
ENDROOT
BRANCH   1   8
HETATM    8  C   UNK     0       0.707   2.251   0.000  0.00  0.00     0.100 C 
BRANCH   8   9
HETATM    9  C   UNK     0       2.069   1.424   0.000  0.00  0.00     0.185 C 
HETATM   10  O   UNK     0       3.344   2.251   0.000  0.00  0.00    -0.647 OA
HETATM   11  O   UNK     0       2.069  -0.094   0.000  0.00  0.00    -0.647 OA
ENDBRANCH   8   9
ENDBRANCH   1   8
TORSDOF 2
