MODEL 1
REMARK VINA RESULT:     -11.6      0.000      0.000
REMARK  3 active torsions:
REMARK  status: ('A' for Active; 'I' for Inactive)
REMARK    1  A    between atoms: C_16  and  C_21 
REMARK    2  A    between atoms: C_24  and  O_62 
REMARK    3  A    between atoms: C_34  and  O_35 
ROOT
HETATM    1  C   UNK     0     160.998 155.700 135.744  0.00  0.00     0.018 A 
HETATM    2  C   UNK     0     161.741 156.058 134.443  0.00  0.00     0.166 A 
HETATM    3  C   UNK     0     160.586 156.811 136.727  0.00  0.00     0.004 A 
HETATM    4  N   UNK     0     162.072 157.528 134.126  0.00  0.00    -0.347 N 
HETATM    5  C   UNK     0     160.918 158.281 136.410  0.00  0.00     0.024 A 
HETATM    6  C   UNK     0     161.661 158.639 135.109  0.00  0.00     0.099 A 
HETATM    7  C   UNK     0     162.152 154.946 133.460  0.00  0.00     0.281 C 
HETATM    8  O   UNK     0     162.895 155.304 132.160  0.00  0.00    -0.189 OA
HETATM    9  O   UNK     0     163.227 156.775 131.842  0.00  0.00    -0.196 OA
HETATM   10  C   UNK     0     162.816 157.885 132.826  0.00  0.00     0.265 A 
HETATM   11  C   UNK     0     163.148 159.356 132.508  0.00  0.00     0.231 A 
HETATM   12  O   UNK     0     162.737 160.468 133.491  0.00  0.00    -0.216 OA
HETATM   13  C   UNK     0     162.231 152.364 132.794  0.00  0.00     0.175 A 
HETATM   14  C   UNK     0     162.974 152.722 131.493  0.00  0.00     0.075 A 
HETATM   15  O   UNK     0     161.820 153.476 133.777  0.00  0.00    -0.336 OA
HETATM   16  C   UNK     0     162.310 149.782 132.128  0.00  0.00     0.065 A 
HETATM   17  O   UNK     0     163.053 150.141 130.827  0.00  0.00    -0.317 OA
HETATM   18  C   UNK     0     161.899 150.894 133.111  0.00  0.00    -0.008 A 
HETATM   19  C   UNK     0     163.386 151.611 130.509  0.00  0.00     0.072 A 
HETATM   20  C   UNK     0     161.156 150.535 134.411  0.00  0.00     0.030 C 
HETATM   21  O   UNK     0     164.302 158.603 130.224  0.00  0.00    -0.365 OA
HETATM   22  C   UNK     0     163.891 159.714 131.208  0.00  0.00     0.149 A 
HETATM   23  C   UNK     0     165.045 158.961 128.925  0.00  0.00     0.151 A 
HETATM   24  C   UNK     0     165.377 160.431 128.607  0.00  0.00     0.021 A 
HETATM   25  C   UNK     0     164.222 161.184 130.891  0.00  0.00     0.030 A 
HETATM   26  C   UNK     0     164.965 161.543 129.591  0.00  0.00     0.004 A 
HETATM   27  C   UNK     0     165.456 157.849 127.941  0.00  0.00     0.071 C 
HETATM   28  C   UNK     0     166.199 158.208 126.640  0.00  0.00     0.066 C 
HETATM   29  C   UNK     0     166.279 155.626 125.974  0.00  0.00     0.028 C 
HETATM   30  C   UNK     0     166.611 157.096 125.657  0.00  0.00    -0.025 C 
HETATM   31  C   UNK     0     167.354 157.454 124.356  0.00  0.00     0.028 C 
HETATM   32  C   UNK     0     163.811 162.295 131.874  0.00  0.00     0.003 C 
HETATM   33  C   UNK     0     164.129 151.969 129.209  0.00  0.00    -0.021 C 
HETATM   34  C   UNK     0     164.461 153.439 128.892  0.00  0.00     0.028 C 
HETATM   35  C   UNK     0     164.540 150.858 128.226  0.00  0.00     0.048 C 
HETATM   36  C   UNK     0     165.283 151.216 126.925  0.00  0.00    -0.012 C 
HETATM   37  C   UNK     0     165.615 152.686 126.608  0.00  0.00     0.029 C 
HETATM   38  C   UNK     0     165.694 150.104 125.942  0.00  0.00     0.148 C 
HETATM   39  C   UNK     0     166.437 150.462 124.642  0.00  0.00     0.144 A 
HETATM   40  O   UNK     0     166.769 151.932 124.325  0.00  0.00    -0.322 OA
HETATM   41  O   UNK     0     165.362 148.634 126.259  0.00  0.00    -0.189 OA
HETATM   42  C   UNK     0     166.849 149.350 123.658  0.00  0.00     0.151 A 
HETATM   43  C   UNK     0     167.782 156.363 123.345  0.00  0.00     0.030 C 
HETATM   44  C   UNK     0     168.646 156.779 121.834  0.00  0.00    -0.026 C 
HETATM   45  C   UNK     0     167.592 149.709 122.358  0.00  0.00     0.004 A 
HETATM   46  C   UNK     0     167.908 151.215 122.076  0.00  0.00     0.002 A 
HETATM   47  C   UNK     0     167.512 152.291 123.024  0.00  0.00     0.175 A 
HETATM   48  O   UNK     0     166.517 147.881 123.976  0.00  0.00    -0.188 OA
HETATM   49  C   UNK     0     169.015 155.747 120.944  0.00  0.00    -0.005 C 
HETATM   50  C   UNK     0     168.609 154.240 121.392  0.00  0.00    -0.005 C 
HETATM   51  C   UNK     0     168.659 152.597 120.968  0.00  0.00    -0.024 C 
HETATM   52  C   UNK     0     167.978 148.577 121.416  0.00  0.00     0.033 C 
HETATM   53  O   UNK     0     163.558 158.336 131.545  0.00  0.00     0.000 OA
HETATM   54  C   UNK     0     169.333 152.197 119.642  0.00  0.00     0.031 C 
ENDROOT
BRANCH  16  55
HETATM   55  C   UNK     0     161.978 148.312 132.445  0.00  0.00     0.072 A 
HETATM   56  C   UNK     0     160.643 147.706 131.975  0.00  0.00     0.007 A 
HETATM   57  C   UNK     0     160.311 146.235 132.292  0.00  0.00     0.056 A 
HETATM   58  C   UNK     0     161.315 145.371 133.079  0.00  0.00     0.127 A 
HETATM   59  C   UNK     0     162.650 145.978 133.549  0.00  0.00     0.093 A 
HETATM   60  O   UNK     0     160.983 143.902 133.396  0.00  0.00    -0.193 OA
HETATM   61  C   UNK     0     162.982 147.448 133.232  0.00  0.00     0.053 A 
BRANCH  59  62
HETATM   62  O   UNK     0     163.653 145.115 134.336  0.00  0.00    -0.331 OA
HETATM   63  C   UNK     0     163.278 144.576 135.729  0.00  0.00     0.181 C 
ENDBRANCH  59  62
ENDBRANCH  16  55
BRANCH  28  64
HETATM   64  O   UNK     0     166.531 159.678 126.323  0.00  0.00    -0.333 OA
HETATM   65  C   UNK     0     167.986 160.175 126.409  0.00  0.00     0.181 C 
ENDBRANCH  28  64
TORSDOF 3
ENDMDL
MODEL 2
REMARK VINA RESULT:     -11.2      8.596     12.499
REMARK  3 active torsions:
REMARK  status: ('A' for Active; 'I' for Inactive)
REMARK    1  A    between atoms: C_16  and  C_21 
REMARK    2  A    between atoms: C_24  and  O_62 
REMARK    3  A    between atoms: C_34  and  O_35 
ROOT
HETATM    1  C   UNK     0     163.826 160.953 142.792  0.00  0.00     0.018 A 
HETATM    2  C   UNK     0     163.951 160.197 141.456  0.00  0.00     0.166 A 
HETATM    3  C   UNK     0     162.434 161.245 143.384  0.00  0.00     0.004 A 
HETATM    4  N   UNK     0     162.685 159.732 140.713  0.00  0.00    -0.347 N 
HETATM    5  C   UNK     0     161.169 160.780 142.641  0.00  0.00     0.024 A 
HETATM    6  C   UNK     0     161.294 160.023 141.306  0.00  0.00     0.099 A 
HETATM    7  C   UNK     0     165.343 159.905 140.864  0.00  0.00     0.281 C 
HETATM    8  O   UNK     0     165.468 159.149 139.528  0.00  0.00    -0.189 OA
HETATM    9  O   UNK     0     164.201 158.683 138.784  0.00  0.00    -0.196 OA
HETATM   10  C   UNK     0     162.811 158.975 139.378  0.00  0.00     0.265 A 
HETATM   11  C   UNK     0     161.544 158.510 138.634  0.00  0.00     0.231 A 
HETATM   12  O   UNK     0     160.153 158.801 139.226  0.00  0.00    -0.216 OA
HETATM   13  C   UNK     0     168.001 160.079 141.014  0.00  0.00     0.175 A 
HETATM   14  C   UNK     0     168.126 159.322 139.679  0.00  0.00     0.075 A 
HETATM   15  O   UNK     0     166.609 160.370 141.607  0.00  0.00    -0.336 OA
HETATM   16  C   UNK     0     170.658 160.252 141.165  0.00  0.00     0.065 A 
HETATM   17  O   UNK     0     170.783 159.496 139.829  0.00  0.00    -0.317 OA
HETATM   18  C   UNK     0     169.266 160.544 141.757  0.00  0.00    -0.008 A 
HETATM   19  C   UNK     0     169.516 159.030 139.085  0.00  0.00     0.072 A 
HETATM   20  C   UNK     0     169.142 161.300 143.093  0.00  0.00     0.030 C 
HETATM   21  O   UNK     0     163.060 157.462 136.706  0.00  0.00    -0.365 OA
HETATM   22  C   UNK     0     161.669 157.754 137.299  0.00  0.00     0.149 A 
HETATM   23  C   UNK     0     163.185 156.706 135.371  0.00  0.00     0.151 A 
HETATM   24  C   UNK     0     161.919 156.241 134.628  0.00  0.00     0.021 A 
HETATM   25  C   UNK     0     160.403 157.289 136.556  0.00  0.00     0.030 A 
HETATM   26  C   UNK     0     160.528 156.532 135.220  0.00  0.00     0.004 A 
HETATM   27  C   UNK     0     164.576 156.414 134.778  0.00  0.00     0.071 C 
HETATM   28  C   UNK     0     164.701 155.657 133.442  0.00  0.00     0.066 C 
HETATM   29  C   UNK     0     167.360 155.831 133.593  0.00  0.00     0.028 C 
HETATM   30  C   UNK     0     166.093 155.366 132.850  0.00  0.00    -0.025 C 
HETATM   31  C   UNK     0     166.218 154.610 131.514  0.00  0.00     0.028 C 
HETATM   32  C   UNK     0     159.012 157.580 137.148  0.00  0.00     0.003 C 
HETATM   33  C   UNK     0     169.641 158.274 137.750  0.00  0.00    -0.021 C 
HETATM   34  C   UNK     0     168.376 157.809 137.007  0.00  0.00     0.028 C 
HETATM   35  C   UNK     0     171.033 157.982 137.157  0.00  0.00     0.048 C 
HETATM   36  C   UNK     0     171.158 157.226 135.822  0.00  0.00    -0.012 C 
HETATM   37  C   UNK     0     169.892 156.761 135.079  0.00  0.00     0.029 C 
HETATM   38  C   UNK     0     172.550 156.935 135.229  0.00  0.00     0.148 C 
HETATM   39  C   UNK     0     172.675 156.178 133.894  0.00  0.00     0.144 A 
HETATM   40  O   UNK     0     171.408 155.713 133.151  0.00  0.00    -0.322 OA
HETATM   41  O   UNK     0     173.816 157.400 135.972  0.00  0.00    -0.189 OA
HETATM   42  C   UNK     0     174.066 155.887 133.301  0.00  0.00     0.151 A 
HETATM   43  C   UNK     0     167.601 154.299 130.889  0.00  0.00     0.030 C 
HETATM   44  C   UNK     0     167.746 153.420 129.337  0.00  0.00    -0.026 C 
HETATM   45  C   UNK     0     174.191 155.130 131.966  0.00  0.00     0.004 A 
HETATM   46  C   UNK     0     172.879 154.677 131.245  0.00  0.00     0.002 A 
HETATM   47  C   UNK     0     171.533 154.957 131.815  0.00  0.00     0.175 A 
HETATM   48  O   UNK     0     175.332 156.352 134.044  0.00  0.00    -0.188 OA
HETATM   49  C   UNK     0     169.030 153.162 128.808  0.00  0.00    -0.005 C 
HETATM   50  C   UNK     0     170.284 153.703 129.686  0.00  0.00    -0.005 C 
HETATM   51  C   UNK     0     171.975 153.813 129.782  0.00  0.00    -0.024 C 
HETATM   52  C   UNK     0     175.587 154.864 131.418  0.00  0.00     0.033 C 
HETATM   53  O   UNK     0     162.842 158.211 138.033  0.00  0.00     0.000 OA
HETATM   54  C   UNK     0     172.821 153.197 128.651  0.00  0.00     0.031 C 
ENDROOT
BRANCH  16  55
HETATM   55  C   UNK     0     171.924 160.717 141.908  0.00  0.00     0.072 A 
HETATM   56  C   UNK     0     172.412 162.171 141.763  0.00  0.00     0.007 A 
HETATM   57  C   UNK     0     173.678 162.636 142.506  0.00  0.00     0.056 A 
HETATM   58  C   UNK     0     174.457 161.647 143.394  0.00  0.00     0.127 A 
HETATM   59  C   UNK     0     173.970 160.194 143.539  0.00  0.00     0.093 A 
HETATM   60  O   UNK     0     175.723 162.113 144.137  0.00  0.00    -0.193 OA
HETATM   61  C   UNK     0     172.703 159.729 142.796  0.00  0.00     0.053 A 
BRANCH  59  62
HETATM   62  O   UNK     0     174.748 159.205 144.426  0.00  0.00    -0.331 OA
HETATM   63  C   UNK     0     173.988 158.248 145.362  0.00  0.00     0.181 C 
ENDBRANCH  59  62
ENDBRANCH  16  55
BRANCH  28  64
HETATM   64  O   UNK     0     163.435 155.192 132.699  0.00  0.00    -0.333 OA
HETATM   65  C   UNK     0     163.098 153.693 132.618  0.00  0.00     0.181 C 
ENDBRANCH  28  64
TORSDOF 3
ENDMDL
MODEL 3
REMARK VINA RESULT:     -10.8     25.543     29.178
REMARK  3 active torsions:
REMARK  status: ('A' for Active; 'I' for Inactive)
REMARK    1  A    between atoms: C_16  and  C_21 
REMARK    2  A    between atoms: C_24  and  O_62 
REMARK    3  A    between atoms: C_34  and  O_35 
ROOT
HETATM    1  C   UNK     0     131.796 145.518 125.330  0.00  0.00     0.018 A 
HETATM    2  C   UNK     0     133.332 145.630 125.327  0.00  0.00     0.166 A 
HETATM    3  C   UNK     0     131.013 145.698 126.645  0.00  0.00     0.004 A 
HETATM    4  N   UNK     0     134.085 145.921 126.638  0.00  0.00    -0.347 N 
HETATM    5  C   UNK     0     131.767 145.989 127.955  0.00  0.00     0.024 A 
HETATM    6  C   UNK     0     133.303 146.101 127.952  0.00  0.00     0.099 A 
HETATM    7  C   UNK     0     134.114 145.450 124.013  0.00  0.00     0.281 C 
HETATM    8  O   UNK     0     135.650 145.561 124.009  0.00  0.00    -0.189 OA
HETATM    9  O   UNK     0     136.405 145.853 125.321  0.00  0.00    -0.196 OA
HETATM   10  C   UNK     0     135.621 146.032 126.634  0.00  0.00     0.265 A 
HETATM   11  C   UNK     0     136.376 146.324 127.946  0.00  0.00     0.231 A 
HETATM   12  O   UNK     0     135.594 146.503 129.260  0.00  0.00    -0.216 OA
HETATM   13  C   UNK     0     134.143 144.979 121.387  0.00  0.00     0.175 A 
HETATM   14  C   UNK     0     135.679 145.090 121.383  0.00  0.00     0.075 A 
HETATM   15  O   UNK     0     133.360 145.158 122.701  0.00  0.00    -0.336 OA
HETATM   16  C   UNK     0     134.171 144.508 118.762  0.00  0.00     0.065 A 
HETATM   17  O   UNK     0     135.707 144.619 118.758  0.00  0.00    -0.317 OA
HETATM   18  C   UNK     0     133.389 144.687 120.076  0.00  0.00    -0.008 A 
HETATM   19  C   UNK     0     136.462 144.910 120.070  0.00  0.00     0.072 A 
HETATM   20  C   UNK     0     131.853 144.576 120.079  0.00  0.00     0.030 C 
HETATM   21  O   UNK     0     138.694 146.256 126.629  0.00  0.00    -0.365 OA
HETATM   22  C   UNK     0     137.911 146.435 127.942  0.00  0.00     0.149 A 
HETATM   23  C   UNK     0     140.229 146.367 126.626  0.00  0.00     0.151 A 
HETATM   24  C   UNK     0     140.983 146.658 127.936  0.00  0.00     0.021 A 
HETATM   25  C   UNK     0     138.665 146.726 129.254  0.00  0.00     0.030 A 
HETATM   26  C   UNK     0     140.201 146.838 129.250  0.00  0.00     0.004 A 
HETATM   27  C   UNK     0     141.012 146.187 125.311  0.00  0.00     0.071 C 
HETATM   28  C   UNK     0     142.548 146.299 125.308  0.00  0.00     0.066 C 
HETATM   29  C   UNK     0     142.577 145.828 122.682  0.00  0.00     0.028 C 
HETATM   30  C   UNK     0     143.331 146.119 123.993  0.00  0.00    -0.025 C 
HETATM   31  C   UNK     0     144.867 146.231 123.990  0.00  0.00     0.028 C 
HETATM   32  C   UNK     0     137.882 146.906 130.567  0.00  0.00     0.003 C 
HETATM   33  C   UNK     0     137.998 145.022 120.067  0.00  0.00    -0.021 C 
HETATM   34  C   UNK     0     138.752 145.313 121.377  0.00  0.00     0.028 C 
HETATM   35  C   UNK     0     138.780 144.842 118.752  0.00  0.00     0.048 C 
HETATM   36  C   UNK     0     140.316 144.954 118.749  0.00  0.00    -0.012 C 
HETATM   37  C   UNK     0     141.070 145.245 120.060  0.00  0.00     0.029 C 
HETATM   38  C   UNK     0     141.099 144.774 117.434  0.00  0.00     0.148 C 
HETATM   39  C   UNK     0     142.635 144.885 117.431  0.00  0.00     0.144 A 
HETATM   40  O   UNK     0     143.388 145.177 118.742  0.00  0.00    -0.322 OA
HETATM   41  O   UNK     0     140.345 144.483 116.123  0.00  0.00    -0.189 OA
HETATM   42  C   UNK     0     143.417 144.706 116.116  0.00  0.00     0.151 A 
HETATM   43  C   UNK     0     145.686 146.055 122.687  0.00  0.00     0.030 C 
HETATM   44  C   UNK     0     147.470 146.185 122.683  0.00  0.00    -0.026 C 
HETATM   45  C   UNK     0     144.953 144.817 116.113  0.00  0.00     0.004 A 
HETATM   46  C   UNK     0     145.677 145.114 117.468  0.00  0.00     0.002 A 
HETATM   47  C   UNK     0     144.924 145.288 118.739  0.00  0.00     0.175 A 
HETATM   48  O   UNK     0     142.663 144.414 114.806  0.00  0.00    -0.188 OA
HETATM   49  C   UNK     0     148.172 146.017 121.469  0.00  0.00    -0.005 C 
HETATM   50  C   UNK     0     147.263 145.715 120.157  0.00  0.00    -0.005 C 
HETATM   51  C   UNK     0     147.282 145.415 118.487  0.00  0.00    -0.024 C 
HETATM   52  C   UNK     0     145.684 144.632 114.791  0.00  0.00     0.033 C 
HETATM   53  O   UNK     0     137.160 146.161 126.723  0.00  0.00     0.000 OA
HETATM   54  C   UNK     0     148.638 145.382 117.757  0.00  0.00     0.031 C 
ENDROOT
BRANCH  16  55
HETATM   55  C   UNK     0     133.418 144.216 117.450  0.00  0.00     0.072 A 
HETATM   56  C   UNK     0     132.955 142.783 117.130  0.00  0.00     0.007 A 
HETATM   57  C   UNK     0     132.202 142.491 115.819  0.00  0.00     0.056 A 
HETATM   58  C   UNK     0     131.911 143.633 114.828  0.00  0.00     0.127 A 
HETATM   59  C   UNK     0     132.373 145.067 115.148  0.00  0.00     0.093 A 
HETATM   60  O   UNK     0     131.157 143.342 113.517  0.00  0.00    -0.193 OA
HETATM   61  C   UNK     0     133.127 145.358 116.459  0.00  0.00     0.053 A 
BRANCH  59  62
HETATM   62  O   UNK     0     132.083 146.209 114.157  0.00  0.00    -0.331 OA
HETATM   63  C   UNK     0     132.913 146.339 112.866  0.00  0.00     0.181 C 
ENDBRANCH  59  62
ENDBRANCH  16  55
BRANCH  28  64
HETATM   64  O   UNK     0     143.302 146.590 126.619  0.00  0.00    -0.333 OA
HETATM   65  C   UNK     0     144.013 147.941 126.814  0.00  0.00     0.181 C 
ENDBRANCH  28  64
TORSDOF 3
ENDMDL
MODEL 4
REMARK VINA RESULT:     -10.7      2.506      9.660
REMARK  3 active torsions:
REMARK  status: ('A' for Active; 'I' for Inactive)
REMARK    1  A    between atoms: C_16  and  C_21 
REMARK    2  A    between atoms: C_24  and  O_62 
REMARK    3  A    between atoms: C_34  and  O_35 
ROOT
HETATM    1  C   UNK     0     160.368 149.845 134.965  0.00  0.00     0.018 A 
HETATM    2  C   UNK     0     161.034 150.200 133.623  0.00  0.00     0.166 A 
HETATM    3  C   UNK     0     159.888 148.405 135.229  0.00  0.00     0.004 A 
HETATM    4  N   UNK     0     161.220 149.116 132.544  0.00  0.00    -0.347 N 
HETATM    5  C   UNK     0     160.075 147.322 134.151  0.00  0.00     0.024 A 
HETATM    6  C   UNK     0     160.741 147.677 132.809  0.00  0.00     0.099 A 
HETATM    7  C   UNK     0     161.513 151.640 133.359  0.00  0.00     0.281 C 
HETATM    8  O   UNK     0     162.179 151.996 132.016  0.00  0.00    -0.189 OA
HETATM    9  O   UNK     0     162.366 150.912 130.937  0.00  0.00    -0.196 OA
HETATM   10  C   UNK     0     161.886 149.473 131.202  0.00  0.00     0.265 A 
HETATM   11  C   UNK     0     162.073 148.389 130.123  0.00  0.00     0.231 A 
HETATM   12  O   UNK     0     161.593 146.949 130.387  0.00  0.00    -0.216 OA
HETATM   13  C   UNK     0     161.807 154.164 134.173  0.00  0.00     0.175 A 
HETATM   14  C   UNK     0     162.472 154.519 132.831  0.00  0.00     0.075 A 
HETATM   15  O   UNK     0     161.327 152.724 134.437  0.00  0.00    -0.336 OA
HETATM   16  C   UNK     0     162.100 156.686 134.987  0.00  0.00     0.065 A 
HETATM   17  O   UNK     0     162.766 157.042 133.645  0.00  0.00    -0.317 OA
HETATM   18  C   UNK     0     161.620 155.247 135.251  0.00  0.00    -0.008 A 
HETATM   19  C   UNK     0     162.952 155.958 132.565  0.00  0.00     0.072 A 
HETATM   20  C   UNK     0     160.954 154.892 136.594  0.00  0.00     0.030 C 
HETATM   21  O   UNK     0     163.218 150.184 128.517  0.00  0.00    -0.365 OA
HETATM   22  C   UNK     0     162.738 148.745 128.782  0.00  0.00     0.149 A 
HETATM   23  C   UNK     0     163.883 150.539 127.175  0.00  0.00     0.151 A 
HETATM   24  C   UNK     0     164.070 149.456 126.097  0.00  0.00     0.021 A 
HETATM   25  C   UNK     0     162.924 147.661 127.704  0.00  0.00     0.030 A 
HETATM   26  C   UNK     0     163.590 148.016 126.361  0.00  0.00     0.004 A 
HETATM   27  C   UNK     0     164.363 151.979 126.911  0.00  0.00     0.071 C 
HETATM   28  C   UNK     0     165.029 152.335 125.568  0.00  0.00     0.066 C 
HETATM   29  C   UNK     0     165.322 154.858 126.382  0.00  0.00     0.028 C 
HETATM   30  C   UNK     0     165.509 153.774 125.304  0.00  0.00    -0.025 C 
HETATM   31  C   UNK     0     166.175 154.130 123.962  0.00  0.00     0.028 C 
HETATM   32  C   UNK     0     162.445 146.222 127.968  0.00  0.00     0.003 C 
HETATM   33  C   UNK     0     163.618 156.314 131.223  0.00  0.00    -0.021 C 
HETATM   34  C   UNK     0     163.804 155.231 130.145  0.00  0.00     0.028 C 
HETATM   35  C   UNK     0     164.098 157.754 130.959  0.00  0.00     0.048 C 
HETATM   36  C   UNK     0     164.763 158.110 129.617  0.00  0.00    -0.012 C 
HETATM   37  C   UNK     0     164.950 157.026 128.539  0.00  0.00     0.029 C 
HETATM   38  C   UNK     0     165.243 159.549 129.353  0.00  0.00     0.148 C 
HETATM   39  C   UNK     0     165.909 159.905 128.011  0.00  0.00     0.144 A 
HETATM   40  O   UNK     0     166.095 158.821 126.932  0.00  0.00    -0.322 OA
HETATM   41  O   UNK     0     165.057 160.633 130.431  0.00  0.00    -0.189 OA
HETATM   42  C   UNK     0     166.388 161.345 127.747  0.00  0.00     0.151 A 
HETATM   43  C   UNK     0     166.669 155.567 123.662  0.00  0.00     0.030 C 
HETATM   44  C   UNK     0     167.442 155.980 122.103  0.00  0.00    -0.026 C 
HETATM   45  C   UNK     0     167.054 161.700 126.404  0.00  0.00     0.004 A 
HETATM   46  C   UNK     0     167.223 160.568 125.338  0.00  0.00     0.002 A 
HETATM   47  C   UNK     0     166.761 159.177 125.590  0.00  0.00     0.175 A 
HETATM   48  O   UNK     0     166.202 162.428 128.825  0.00  0.00    -0.188 OA
HETATM   49  C   UNK     0     167.876 157.305 121.877  0.00  0.00    -0.005 C 
HETATM   50  C   UNK     0     167.623 158.354 123.091  0.00  0.00    -0.005 C 
HETATM   51  C   UNK     0     167.809 159.959 123.609  0.00  0.00    -0.024 C 
HETATM   52  C   UNK     0     167.513 163.136 126.187  0.00  0.00     0.033 C 
HETATM   53  O   UNK     0     162.543 149.741 129.828  0.00  0.00     0.000 OA
HETATM   54  C   UNK     0     168.475 160.971 122.656  0.00  0.00     0.031 C 
ENDROOT
BRANCH  16  55
HETATM   55  C   UNK     0     161.913 157.770 136.065  0.00  0.00     0.072 A 
HETATM   56  C   UNK     0     160.497 158.223 136.465  0.00  0.00     0.007 A 
HETATM   57  C   UNK     0     160.311 159.307 137.543  0.00  0.00     0.056 A 
HETATM   58  C   UNK     0     161.541 159.938 138.222  0.00  0.00     0.127 A 
HETATM   59  C   UNK     0     162.957 159.486 137.822  0.00  0.00     0.093 A 
HETATM   60  O   UNK     0     161.354 161.022 139.299  0.00  0.00    -0.193 OA
HETATM   61  C   UNK     0     163.144 158.402 136.744  0.00  0.00     0.053 A 
BRANCH  59  62
HETATM   62  O   UNK     0     164.187 160.116 138.500  0.00  0.00    -0.331 OA
HETATM   63  C   UNK     0     164.582 159.692 139.927  0.00  0.00     0.181 C 
ENDBRANCH  59  62
ENDBRANCH  16  55
BRANCH  28  64
HETATM   64  O   UNK     0     165.215 151.251 124.490  0.00  0.00    -0.333 OA
HETATM   65  C   UNK     0     166.621 150.703 124.185  0.00  0.00     0.181 C 
ENDBRANCH  28  64
TORSDOF 3
ENDMDL
MODEL 5
REMARK VINA RESULT:     -10.5     16.064     20.634
REMARK  3 active torsions:
REMARK  status: ('A' for Active; 'I' for Inactive)
REMARK    1  A    between atoms: C_16  and  C_21 
REMARK    2  A    between atoms: C_24  and  O_62 
REMARK    3  A    between atoms: C_34  and  O_35 
ROOT
HETATM    1  C   UNK     0     146.069 146.293 119.295  0.00  0.00     0.018 A 
HETATM    2  C   UNK     0     147.335 145.597 118.763  0.00  0.00     0.166 A 
HETATM    3  C   UNK     0     144.793 145.472 119.564  0.00  0.00     0.004 A 
HETATM    4  N   UNK     0     147.326 144.079 118.500  0.00  0.00    -0.347 N 
HETATM    5  C   UNK     0     144.785 143.956 119.301  0.00  0.00     0.024 A 
HETATM    6  C   UNK     0     146.051 143.259 118.769  0.00  0.00     0.099 A 
HETATM    7  C   UNK     0     148.610 146.418 118.494  0.00  0.00     0.281 C 
HETATM    8  O   UNK     0     149.876 145.721 117.962  0.00  0.00    -0.189 OA
HETATM    9  O   UNK     0     149.868 144.203 117.699  0.00  0.00    -0.196 OA
HETATM   10  C   UNK     0     148.593 143.383 117.968  0.00  0.00     0.265 A 
HETATM   11  C   UNK     0     148.584 141.865 117.705  0.00  0.00     0.231 A 
HETATM   12  O   UNK     0     147.309 141.044 117.974  0.00  0.00    -0.216 OA
HETATM   13  C   UNK     0     149.894 148.756 118.488  0.00  0.00     0.175 A 
HETATM   14  C   UNK     0     151.160 148.060 117.956  0.00  0.00     0.075 A 
HETATM   15  O   UNK     0     148.619 147.935 118.757  0.00  0.00    -0.336 OA
HETATM   16  C   UNK     0     151.178 151.094 118.481  0.00  0.00     0.065 A 
HETATM   17  O   UNK     0     152.444 150.397 117.949  0.00  0.00    -0.317 OA
HETATM   18  C   UNK     0     149.903 150.273 118.750  0.00  0.00    -0.008 A 
HETATM   19  C   UNK     0     152.436 148.879 117.686  0.00  0.00     0.072 A 
HETATM   20  C   UNK     0     148.637 150.971 119.282  0.00  0.00     0.030 C 
HETATM   21  O   UNK     0     151.125 141.989 116.904  0.00  0.00    -0.365 OA
HETATM   22  C   UNK     0     149.850 141.169 117.174  0.00  0.00     0.149 A 
HETATM   23  C   UNK     0     152.391 141.292 116.373  0.00  0.00     0.151 A 
HETATM   24  C   UNK     0     152.382 139.776 116.110  0.00  0.00     0.021 A 
HETATM   25  C   UNK     0     149.841 139.651 116.911  0.00  0.00     0.030 A 
HETATM   26  C   UNK     0     151.107 138.955 116.379  0.00  0.00     0.004 A 
HETATM   27  C   UNK     0     153.666 142.113 116.103  0.00  0.00     0.071 C 
HETATM   28  C   UNK     0     154.933 141.416 115.571  0.00  0.00     0.066 C 
HETATM   29  C   UNK     0     156.217 143.755 115.565  0.00  0.00     0.028 C 
HETATM   30  C   UNK     0     156.208 142.237 115.302  0.00  0.00    -0.025 C 
HETATM   31  C   UNK     0     157.474 141.540 114.770  0.00  0.00     0.028 C 
HETATM   32  C   UNK     0     148.566 138.831 117.180  0.00  0.00     0.003 C 
HETATM   33  C   UNK     0     153.702 148.183 117.154  0.00  0.00    -0.021 C 
HETATM   34  C   UNK     0     153.694 146.666 116.892  0.00  0.00     0.028 C 
HETATM   35  C   UNK     0     154.977 149.004 116.885  0.00  0.00     0.048 C 
HETATM   36  C   UNK     0     156.243 148.307 116.353  0.00  0.00    -0.012 C 
HETATM   37  C   UNK     0     156.235 146.789 116.091  0.00  0.00     0.029 C 
HETATM   38  C   UNK     0     157.519 149.128 116.084  0.00  0.00     0.148 C 
HETATM   39  C   UNK     0     158.785 148.431 115.552  0.00  0.00     0.144 A 
HETATM   40  O   UNK     0     158.776 146.914 115.290  0.00  0.00    -0.322 OA
HETATM   41  O   UNK     0     157.528 150.646 116.347  0.00  0.00    -0.189 OA
HETATM   42  C   UNK     0     160.060 149.252 115.283  0.00  0.00     0.151 A 
HETATM   43  C   UNK     0     158.774 142.334 114.488  0.00  0.00     0.030 C 
HETATM   44  C   UNK     0     160.245 141.525 113.870  0.00  0.00    -0.026 C 
HETATM   45  C   UNK     0     161.326 148.556 114.751  0.00  0.00     0.004 A 
HETATM   46  C   UNK     0     161.272 147.012 114.499  0.00  0.00     0.002 A 
HETATM   47  C   UNK     0     160.042 146.217 114.758  0.00  0.00     0.175 A 
HETATM   48  O   UNK     0     160.068 150.769 115.546  0.00  0.00    -0.188 OA
HETATM   49  C   UNK     0     161.405 142.293 113.629  0.00  0.00    -0.005 C 
HETATM   50  C   UNK     0     161.287 143.881 113.946  0.00  0.00    -0.005 C 
HETATM   51  C   UNK     0     162.104 145.369 113.942  0.00  0.00    -0.024 C 
HETATM   52  C   UNK     0     162.563 149.407 114.500  0.00  0.00     0.033 C 
HETATM   53  O   UNK     0     149.817 142.602 117.435  0.00  0.00     0.000 OA
HETATM   54  C   UNK     0     163.572 145.405 113.473  0.00  0.00     0.031 C 
ENDROOT
BRANCH  16  55
HETATM   55  C   UNK     0     151.187 152.612 118.744  0.00  0.00     0.072 A 
HETATM   56  C   UNK     0     150.533 153.572 117.733  0.00  0.00     0.007 A 
HETATM   57  C   UNK     0     150.542 155.090 117.996  0.00  0.00     0.056 A 
HETATM   58  C   UNK     0     151.205 155.647 119.270  0.00  0.00     0.127 A 
HETATM   59  C   UNK     0     151.858 154.687 120.281  0.00  0.00     0.093 A 
HETATM   60  O   UNK     0     151.213 157.164 119.532  0.00  0.00    -0.193 OA
HETATM   61  C   UNK     0     151.849 153.169 120.018  0.00  0.00     0.053 A 
BRANCH  59  62
HETATM   62  O   UNK     0     152.521 155.243 121.554  0.00  0.00    -0.331 OA
HETATM   63  C   UNK     0     153.927 155.866 121.481  0.00  0.00     0.181 C 
ENDBRANCH  59  62
ENDBRANCH  16  55
BRANCH  28  64
HETATM   64  O   UNK     0     154.924 139.899 115.308  0.00  0.00    -0.333 OA
HETATM   65  C   UNK     0     155.695 138.951 116.245  0.00  0.00     0.181 C 
ENDBRANCH  28  64
TORSDOF 3
ENDMDL
MODEL 6
REMARK VINA RESULT:     -10.4     15.356     22.586
REMARK  3 active torsions:
REMARK  status: ('A' for Active; 'I' for Inactive)
REMARK    1  A    between atoms: C_16  and  C_21 
REMARK    2  A    between atoms: C_24  and  O_62 
REMARK    3  A    between atoms: C_34  and  O_35 
ROOT
HETATM    1  C   UNK     0     164.057 150.410 106.454  0.00  0.00     0.018 A 
HETATM    2  C   UNK     0     163.357 149.881 107.719  0.00  0.00     0.166 A 
HETATM    3  C   UNK     0     164.986 149.487 105.644  0.00  0.00     0.004 A 
HETATM    4  N   UNK     0     163.587 148.427 108.175  0.00  0.00    -0.347 N 
HETATM    5  C   UNK     0     165.216 148.034 106.100  0.00  0.00     0.024 A 
HETATM    6  C   UNK     0     164.516 147.505 107.366  0.00  0.00     0.099 A 
HETATM    7  C   UNK     0     162.428 150.804 108.529  0.00  0.00     0.281 C 
HETATM    8  O   UNK     0     161.728 150.275 109.795  0.00  0.00    -0.189 OA
HETATM    9  O   UNK     0     161.957 148.821 110.251  0.00  0.00    -0.196 OA
HETATM   10  C   UNK     0     162.887 147.899 109.441  0.00  0.00     0.265 A 
HETATM   11  C   UNK     0     163.116 146.445 109.897  0.00  0.00     0.231 A 
HETATM   12  O   UNK     0     164.045 145.521 109.088  0.00  0.00    -0.216 OA
HETATM   13  C   UNK     0     161.269 153.181 108.883  0.00  0.00     0.175 A 
HETATM   14  C   UNK     0     160.569 152.652 110.148  0.00  0.00     0.075 A 
HETATM   15  O   UNK     0     162.198 152.258 108.073  0.00  0.00    -0.336 OA
HETATM   16  C   UNK     0     160.110 155.557 109.237  0.00  0.00     0.065 A 
HETATM   17  O   UNK     0     159.411 155.028 110.502  0.00  0.00    -0.317 OA
HETATM   18  C   UNK     0     161.040 154.634 108.427  0.00  0.00    -0.008 A 
HETATM   19  C   UNK     0     159.640 153.574 110.959  0.00  0.00     0.072 A 
HETATM   20  C   UNK     0     161.739 155.164 107.162  0.00  0.00     0.030 C 
HETATM   21  O   UNK     0     161.487 146.838 111.972  0.00  0.00    -0.365 OA
HETATM   22  C   UNK     0     162.416 145.916 111.162  0.00  0.00     0.149 A 
HETATM   23  C   UNK     0     160.788 146.309 113.237  0.00  0.00     0.151 A 
HETATM   24  C   UNK     0     161.017 144.857 113.693  0.00  0.00     0.021 A 
HETATM   25  C   UNK     0     162.646 144.463 111.618  0.00  0.00     0.030 A 
HETATM   26  C   UNK     0     161.946 143.933 112.883  0.00  0.00     0.004 A 
HETATM   27  C   UNK     0     159.858 147.233 114.047  0.00  0.00     0.071 C 
HETATM   28  C   UNK     0     159.158 146.703 115.313  0.00  0.00     0.066 C 
HETATM   29  C   UNK     0     157.999 149.080 115.667  0.00  0.00     0.028 C 
HETATM   30  C   UNK     0     158.229 147.626 116.123  0.00  0.00    -0.025 C 
HETATM   31  C   UNK     0     157.529 147.097 117.388  0.00  0.00     0.028 C 
HETATM   32  C   UNK     0     163.575 143.540 110.808  0.00  0.00     0.003 C 
HETATM   33  C   UNK     0     158.940 153.045 112.224  0.00  0.00    -0.021 C 
HETATM   34  C   UNK     0     159.169 151.592 112.680  0.00  0.00     0.028 C 
HETATM   35  C   UNK     0     158.011 153.968 113.034  0.00  0.00     0.048 C 
HETATM   36  C   UNK     0     157.311 153.439 114.299  0.00  0.00    -0.012 C 
HETATM   37  C   UNK     0     157.541 151.985 114.755  0.00  0.00     0.029 C 
HETATM   38  C   UNK     0     156.382 154.362 115.109  0.00  0.00     0.148 C 
HETATM   39  C   UNK     0     155.682 153.833 116.375  0.00  0.00     0.144 A 
HETATM   40  O   UNK     0     155.911 152.379 116.830  0.00  0.00    -0.322 OA
HETATM   41  O   UNK     0     156.152 155.816 114.653  0.00  0.00    -0.189 OA
HETATM   42  C   UNK     0     154.752 154.756 117.184  0.00  0.00     0.151 A 
HETATM   43  C   UNK     0     156.588 147.997 118.227  0.00  0.00     0.030 C 
HETATM   44  C   UNK     0     155.775 147.382 119.697  0.00  0.00    -0.026 C 
HETATM   45  C   UNK     0     154.053 154.227 118.450  0.00  0.00     0.004 A 
HETATM   46  C   UNK     0     154.315 152.744 118.876  0.00  0.00     0.002 A 
HETATM   47  C   UNK     0     155.212 151.850 118.096  0.00  0.00     0.175 A 
HETATM   48  O   UNK     0     154.523 156.209 116.728  0.00  0.00    -0.188 OA
HETATM   49  C   UNK     0     154.927 148.242 120.427  0.00  0.00    -0.005 C 
HETATM   50  C   UNK     0     154.767 149.750 119.844  0.00  0.00    -0.005 C 
HETATM   51  C   UNK     0     154.030 151.261 120.069  0.00  0.00    -0.024 C 
HETATM   52  C   UNK     0     153.143 155.175 119.219  0.00  0.00     0.033 C 
HETATM   53  O   UNK     0     162.226 147.284 110.697  0.00  0.00     0.000 OA
HETATM   54  C   UNK     0     153.094 151.455 121.278  0.00  0.00     0.031 C 
ENDROOT
BRANCH  16  55
HETATM   55  C   UNK     0     159.881 157.011 108.781  0.00  0.00     0.072 A 
HETATM   56  C   UNK     0     160.835 158.125 109.251  0.00  0.00     0.007 A 
HETATM   57  C   UNK     0     160.605 159.578 108.795  0.00  0.00     0.056 A 
HETATM   58  C   UNK     0     159.422 159.917 107.869  0.00  0.00     0.127 A 
HETATM   59  C   UNK     0     158.468 158.803 107.400  0.00  0.00     0.093 A 
HETATM   60  O   UNK     0     159.193 161.370 107.414  0.00  0.00    -0.193 OA
HETATM   61  C   UNK     0     158.697 157.350 107.856  0.00  0.00     0.053 A 
BRANCH  59  62
HETATM   62  O   UNK     0     157.285 159.142 106.475  0.00  0.00    -0.331 OA
HETATM   63  C   UNK     0     157.542 159.532 105.007  0.00  0.00     0.181 C 
ENDBRANCH  59  62
ENDBRANCH  16  55
BRANCH  28  64
HETATM   64  O   UNK     0     159.388 145.249 115.769  0.00  0.00    -0.333 OA
HETATM   65  C   UNK     0     158.225 144.241 115.739  0.00  0.00     0.181 C 
ENDBRANCH  28  64
TORSDOF 3
ENDMDL
MODEL 7
REMARK VINA RESULT:     -10.3     17.362     22.981
REMARK  3 active torsions:
REMARK  status: ('A' for Active; 'I' for Inactive)
REMARK    1  A    between atoms: C_16  and  C_21 
REMARK    2  A    between atoms: C_24  and  O_62 
REMARK    3  A    between atoms: C_34  and  O_35 
ROOT
HETATM    1  C   UNK     0     149.899 146.105 116.442  0.00  0.00     0.018 A 
HETATM    2  C   UNK     0     150.590 144.732 116.337  0.00  0.00     0.166 A 
HETATM    3  C   UNK     0     148.419 146.192 116.858  0.00  0.00     0.004 A 
HETATM    4  N   UNK     0     149.800 143.447 116.647  0.00  0.00    -0.347 N 
HETATM    5  C   UNK     0     147.629 144.907 117.167  0.00  0.00     0.024 A 
HETATM    6  C   UNK     0     148.320 143.535 117.062  0.00  0.00     0.099 A 
HETATM    7  C   UNK     0     152.070 144.645 115.922  0.00  0.00     0.281 C 
HETATM    8  O   UNK     0     152.761 143.272 115.816  0.00  0.00    -0.189 OA
HETATM    9  O   UNK     0     151.971 141.986 116.126  0.00  0.00    -0.196 OA
HETATM   10  C   UNK     0     150.491 142.075 116.541  0.00  0.00     0.265 A 
HETATM   11  C   UNK     0     149.701 140.789 116.851  0.00  0.00     0.231 A 
HETATM   12  O   UNK     0     148.220 140.876 117.267  0.00  0.00    -0.216 OA
HETATM   13  C   UNK     0     154.341 145.843 115.196  0.00  0.00     0.175 A 
HETATM   14  C   UNK     0     155.032 144.470 115.091  0.00  0.00     0.075 A 
HETATM   15  O   UNK     0     152.861 145.930 115.611  0.00  0.00    -0.336 OA
HETATM   16  C   UNK     0     156.611 147.040 114.471  0.00  0.00     0.065 A 
HETATM   17  O   UNK     0     157.302 145.668 114.366  0.00  0.00    -0.317 OA
HETATM   18  C   UNK     0     155.131 147.128 114.886  0.00  0.00    -0.008 A 
HETATM   19  C   UNK     0     156.512 144.382 114.676  0.00  0.00     0.072 A 
HETATM   20  C   UNK     0     154.441 148.501 114.991  0.00  0.00     0.030 C 
HETATM   21  O   UNK     0     151.871 139.328 116.331  0.00  0.00    -0.365 OA
HETATM   22  C   UNK     0     150.391 139.417 116.746  0.00  0.00     0.149 A 
HETATM   23  C   UNK     0     152.561 137.957 116.225  0.00  0.00     0.151 A 
HETATM   24  C   UNK     0     151.772 136.672 116.535  0.00  0.00     0.021 A 
HETATM   25  C   UNK     0     149.601 138.132 117.056  0.00  0.00     0.030 A 
HETATM   26  C   UNK     0     150.291 136.759 116.951  0.00  0.00     0.004 A 
HETATM   27  C   UNK     0     154.042 137.869 115.810  0.00  0.00     0.071 C 
HETATM   28  C   UNK     0     154.733 136.496 115.705  0.00  0.00     0.066 C 
HETATM   29  C   UNK     0     157.003 137.694 114.979  0.00  0.00     0.028 C 
HETATM   30  C   UNK     0     156.213 136.409 115.289  0.00  0.00    -0.025 C 
HETATM   31  C   UNK     0     156.904 135.036 115.184  0.00  0.00     0.028 C 
HETATM   32  C   UNK     0     148.121 138.220 117.471  0.00  0.00     0.003 C 
HETATM   33  C   UNK     0     157.202 143.009 114.570  0.00  0.00    -0.021 C 
HETATM   34  C   UNK     0     156.413 141.724 114.880  0.00  0.00     0.028 C 
HETATM   35  C   UNK     0     158.683 142.922 114.155  0.00  0.00     0.048 C 
HETATM   36  C   UNK     0     159.373 141.549 114.050  0.00  0.00    -0.012 C 
HETATM   37  C   UNK     0     158.583 140.264 114.360  0.00  0.00     0.029 C 
HETATM   38  C   UNK     0     160.854 141.462 113.634  0.00  0.00     0.148 C 
HETATM   39  C   UNK     0     161.544 140.089 113.529  0.00  0.00     0.144 A 
HETATM   40  O   UNK     0     160.754 138.804 113.839  0.00  0.00    -0.322 OA
HETATM   41  O   UNK     0     161.644 142.747 113.324  0.00  0.00    -0.189 OA
HETATM   42  C   UNK     0     163.025 140.002 113.113  0.00  0.00     0.151 A 
HETATM   43  C   UNK     0     158.391 134.911 114.769  0.00  0.00     0.030 C 
HETATM   44  C   UNK     0     159.193 133.316 114.647  0.00  0.00    -0.026 C 
HETATM   45  C   UNK     0     163.715 138.630 113.008  0.00  0.00     0.004 A 
HETATM   46  C   UNK     0     162.875 137.350 113.332  0.00  0.00     0.002 A 
HETATM   47  C   UNK     0     161.445 137.432 113.733  0.00  0.00     0.175 A 
HETATM   48  O   UNK     0     163.814 141.287 112.804  0.00  0.00    -0.188 OA
HETATM   49  C   UNK     0     160.551 133.254 114.265  0.00  0.00    -0.005 C 
HETATM   50  C   UNK     0     161.272 134.678 113.965  0.00  0.00    -0.005 C 
HETATM   51  C   UNK     0     162.717 135.440 113.504  0.00  0.00    -0.024 C 
HETATM   52  C   UNK     0     165.180 138.591 112.594  0.00  0.00     0.033 C 
HETATM   53  O   UNK     0     151.103 140.656 116.461  0.00  0.00     0.000 OA
HETATM   54  C   UNK     0     163.952 134.567 113.210  0.00  0.00     0.031 C 
ENDROOT
BRANCH  16  55
HETATM   55  C   UNK     0     157.402 148.326 114.161  0.00  0.00     0.072 A 
HETATM   56  C   UNK     0     158.124 149.077 115.294  0.00  0.00     0.007 A 
HETATM   57  C   UNK     0     158.914 150.362 114.984  0.00  0.00     0.056 A 
HETATM   58  C   UNK     0     158.982 150.896 113.541  0.00  0.00     0.127 A 
HETATM   59  C   UNK     0     158.260 150.144 112.408  0.00  0.00     0.093 A 
HETATM   60  O   UNK     0     159.772 152.181 113.232  0.00  0.00    -0.193 OA
HETATM   61  C   UNK     0     157.469 148.859 112.718  0.00  0.00     0.053 A 
BRANCH  59  62
HETATM   62  O   UNK     0     158.327 150.677 110.965  0.00  0.00    -0.331 OA
HETATM   63  C   UNK     0     159.672 150.702 110.215  0.00  0.00     0.181 C 
ENDBRANCH  59  62
ENDBRANCH  16  55
BRANCH  28  64
HETATM   64  O   UNK     0     153.942 135.211 116.015  0.00  0.00    -0.333 OA
HETATM   65  C   UNK     0     154.240 134.415 117.298  0.00  0.00     0.181 C 
ENDBRANCH  28  64
TORSDOF 3
ENDMDL
MODEL 8
REMARK VINA RESULT:     -10.3      7.326     12.932
REMARK  3 active torsions:
REMARK  status: ('A' for Active; 'I' for Inactive)
REMARK    1  A    between atoms: C_16  and  C_21 
REMARK    2  A    between atoms: C_24  and  O_62 
REMARK    3  A    between atoms: C_34  and  O_35 
ROOT
HETATM    1  C   UNK     0     164.142 161.500 142.420  0.00  0.00     0.018 A 
HETATM    2  C   UNK     0     164.158 160.907 140.999  0.00  0.00     0.166 A 
HETATM    3  C   UNK     0     162.919 161.280 143.332  0.00  0.00     0.004 A 
HETATM    4  N   UNK     0     162.953 160.095 140.489  0.00  0.00    -0.347 N 
HETATM    5  C   UNK     0     161.715 160.469 142.822  0.00  0.00     0.024 A 
HETATM    6  C   UNK     0     161.732 159.876 141.400  0.00  0.00     0.099 A 
HETATM    7  C   UNK     0     165.381 161.126 140.088  0.00  0.00     0.281 C 
HETATM    8  O   UNK     0     165.397 160.534 138.666  0.00  0.00    -0.189 OA
HETATM    9  O   UNK     0     164.192 159.721 138.156  0.00  0.00    -0.196 OA
HETATM   10  C   UNK     0     162.971 159.503 139.068  0.00  0.00     0.265 A 
HETATM   11  C   UNK     0     161.765 158.690 138.557  0.00  0.00     0.231 A 
HETATM   12  O   UNK     0     160.543 158.471 139.468  0.00  0.00    -0.216 OA
HETATM   13  C   UNK     0     167.808 162.158 139.687  0.00  0.00     0.175 A 
HETATM   14  C   UNK     0     167.825 161.565 138.265  0.00  0.00     0.075 A 
HETATM   15  O   UNK     0     166.586 161.938 140.598  0.00  0.00    -0.336 OA
HETATM   16  C   UNK     0     170.235 163.189 139.285  0.00  0.00     0.065 A 
HETATM   17  O   UNK     0     170.252 162.596 137.864  0.00  0.00    -0.317 OA
HETATM   18  C   UNK     0     169.013 162.969 140.197  0.00  0.00    -0.008 A 
HETATM   19  C   UNK     0     169.046 161.784 137.353  0.00  0.00     0.072 A 
HETATM   20  C   UNK     0     168.997 163.562 141.618  0.00  0.00     0.030 C 
HETATM   21  O   UNK     0     163.003 158.317 136.224  0.00  0.00    -0.365 OA
HETATM   22  C   UNK     0     161.782 158.098 137.136  0.00  0.00     0.149 A 
HETATM   23  C   UNK     0     163.020 157.725 134.804  0.00  0.00     0.151 A 
HETATM   24  C   UNK     0     161.816 156.913 134.294  0.00  0.00     0.021 A 
HETATM   25  C   UNK     0     160.577 157.286 136.626  0.00  0.00     0.030 A 
HETATM   26  C   UNK     0     160.593 156.694 135.205  0.00  0.00     0.004 A 
HETATM   27  C   UNK     0     164.242 157.944 133.893  0.00  0.00     0.071 C 
HETATM   28  C   UNK     0     164.259 157.351 132.470  0.00  0.00     0.066 C 
HETATM   29  C   UNK     0     166.687 158.382 132.069  0.00  0.00     0.028 C 
HETATM   30  C   UNK     0     165.482 157.570 131.559  0.00  0.00    -0.025 C 
HETATM   31  C   UNK     0     165.498 156.978 130.138  0.00  0.00     0.028 C 
HETATM   32  C   UNK     0     159.355 157.067 137.537  0.00  0.00     0.003 C 
HETATM   33  C   UNK     0     169.063 161.191 135.932  0.00  0.00    -0.021 C 
HETATM   34  C   UNK     0     167.859 160.379 135.422  0.00  0.00     0.028 C 
HETATM   35  C   UNK     0     170.286 161.410 135.021  0.00  0.00     0.048 C 
HETATM   36  C   UNK     0     170.302 160.818 133.599  0.00  0.00    -0.012 C 
HETATM   37  C   UNK     0     169.097 160.006 133.089  0.00  0.00     0.029 C 
HETATM   38  C   UNK     0     171.525 161.037 132.688  0.00  0.00     0.148 C 
HETATM   39  C   UNK     0     171.541 160.444 131.267  0.00  0.00     0.144 A 
HETATM   40  O   UNK     0     170.336 159.632 130.757  0.00  0.00    -0.322 OA
HETATM   41  O   UNK     0     172.730 161.849 133.198  0.00  0.00    -0.189 OA
HETATM   42  C   UNK     0     172.764 160.664 130.355  0.00  0.00     0.151 A 
HETATM   43  C   UNK     0     166.710 157.178 129.194  0.00  0.00     0.030 C 
HETATM   44  C   UNK     0     166.730 156.490 127.543  0.00  0.00    -0.026 C 
HETATM   45  C   UNK     0     172.780 160.071 128.934  0.00  0.00     0.004 A 
HETATM   46  C   UNK     0     171.535 159.253 128.457  0.00  0.00     0.002 A 
HETATM   47  C   UNK     0     170.353 159.040 129.335  0.00  0.00     0.175 A 
HETATM   48  O   UNK     0     173.968 161.475 130.865  0.00  0.00    -0.188 OA
HETATM   49  C   UNK     0     167.858 156.700 126.721  0.00  0.00    -0.005 C 
HETATM   50  C   UNK     0     169.063 157.572 127.374  0.00  0.00    -0.005 C 
HETATM   51  C   UNK     0     170.607 158.228 127.119  0.00  0.00    -0.024 C 
HETATM   52  C   UNK     0     174.009 160.313 128.069  0.00  0.00     0.033 C 
HETATM   53  O   UNK     0     162.902 158.872 137.657  0.00  0.00     0.000 OA
HETATM   54  C   UNK     0     171.294 157.994 125.760  0.00  0.00     0.031 C 
ENDROOT
BRANCH  16  55
HETATM   55  C   UNK     0     171.440 164.000 139.795  0.00  0.00     0.072 A 
HETATM   56  C   UNK     0     171.466 165.531 139.625  0.00  0.00     0.007 A 
HETATM   57  C   UNK     0     172.671 166.343 140.135  0.00  0.00     0.056 A 
HETATM   58  C   UNK     0     173.851 165.624 140.815  0.00  0.00     0.127 A 
HETATM   59  C   UNK     0     173.826 164.094 140.986  0.00  0.00     0.093 A 
HETATM   60  O   UNK     0     175.056 166.436 141.325  0.00  0.00    -0.193 OA
HETATM   61  C   UNK     0     172.621 163.282 140.476  0.00  0.00     0.053 A 
BRANCH  59  62
HETATM   62  O   UNK     0     175.006 163.376 141.666  0.00  0.00    -0.331 OA
HETATM   63  C   UNK     0     175.446 161.984 141.175  0.00  0.00     0.181 C 
ENDBRANCH  59  62
ENDBRANCH  16  55
BRANCH  28  64
HETATM   64  O   UNK     0     163.054 156.539 131.960  0.00  0.00    -0.333 OA
HETATM   65  C   UNK     0     163.184 155.020 131.747  0.00  0.00     0.181 C 
ENDBRANCH  28  64
TORSDOF 3
ENDMDL
MODEL 9
REMARK VINA RESULT:     -10.2     16.364     21.873
REMARK  3 active torsions:
REMARK  status: ('A' for Active; 'I' for Inactive)
REMARK    1  A    between atoms: C_16  and  C_21 
REMARK    2  A    between atoms: C_24  and  O_62 
REMARK    3  A    between atoms: C_34  and  O_35 
ROOT
HETATM    1  C   UNK     0     163.937 142.471 111.377  0.00  0.00     0.018 A 
HETATM    2  C   UNK     0     162.821 143.163 112.180  0.00  0.00     0.166 A 
HETATM    3  C   UNK     0     164.310 141.007 111.681  0.00  0.00     0.004 A 
HETATM    4  N   UNK     0     162.077 142.393 113.287  0.00  0.00    -0.347 N 
HETATM    5  C   UNK     0     163.567 140.238 112.787  0.00  0.00     0.024 A 
HETATM    6  C   UNK     0     162.450 140.930 113.590  0.00  0.00     0.099 A 
HETATM    7  C   UNK     0     162.448 144.626 111.876  0.00  0.00     0.281 C 
HETATM    8  O   UNK     0     161.331 145.319 112.679  0.00  0.00    -0.189 OA
HETATM    9  O   UNK     0     160.587 144.549 113.786  0.00  0.00    -0.196 OA
HETATM   10  C   UNK     0     160.960 143.086 114.089  0.00  0.00     0.265 A 
HETATM   11  C   UNK     0     160.216 142.316 115.197  0.00  0.00     0.231 A 
HETATM   12  O   UNK     0     160.589 140.853 115.501  0.00  0.00    -0.216 OA
HETATM   13  C   UNK     0     162.819 146.860 110.465  0.00  0.00     0.175 A 
HETATM   14  C   UNK     0     161.702 147.553 111.268  0.00  0.00     0.075 A 
HETATM   15  O   UNK     0     163.192 145.397 110.769  0.00  0.00    -0.336 OA
HETATM   16  C   UNK     0     163.190 149.093 109.054  0.00  0.00     0.065 A 
HETATM   17  O   UNK     0     162.073 149.786 109.857  0.00  0.00    -0.317 OA
HETATM   18  C   UNK     0     163.562 147.630 109.358  0.00  0.00    -0.008 A 
HETATM   19  C   UNK     0     161.328 149.016 110.965  0.00  0.00     0.072 A 
HETATM   20  C   UNK     0     164.679 146.938 108.555  0.00  0.00     0.030 C 
HETATM   21  O   UNK     0     158.726 144.471 115.696  0.00  0.00    -0.365 OA
HETATM   22  C   UNK     0     159.100 143.008 115.999  0.00  0.00     0.149 A 
HETATM   23  C   UNK     0     157.610 145.163 116.499  0.00  0.00     0.151 A 
HETATM   24  C   UNK     0     156.867 144.393 117.605  0.00  0.00     0.021 A 
HETATM   25  C   UNK     0     158.356 142.237 117.106  0.00  0.00     0.030 A 
HETATM   26  C   UNK     0     157.239 142.930 117.909  0.00  0.00     0.004 A 
HETATM   27  C   UNK     0     157.237 146.626 116.195  0.00  0.00     0.071 C 
HETATM   28  C   UNK     0     156.120 147.319 116.998  0.00  0.00     0.066 C 
HETATM   29  C   UNK     0     156.491 149.553 115.588  0.00  0.00     0.028 C 
HETATM   30  C   UNK     0     155.747 148.783 116.694  0.00  0.00    -0.025 C 
HETATM   31  C   UNK     0     154.630 149.475 117.498  0.00  0.00     0.028 C 
HETATM   32  C   UNK     0     158.729 140.775 117.410  0.00  0.00     0.003 C 
HETATM   33  C   UNK     0     160.212 149.708 111.768  0.00  0.00    -0.021 C 
HETATM   34  C   UNK     0     159.468 148.939 112.874  0.00  0.00     0.028 C 
HETATM   35  C   UNK     0     159.839 151.172 111.464  0.00  0.00     0.048 C 
HETATM   36  C   UNK     0     158.722 151.864 112.267  0.00  0.00    -0.012 C 
HETATM   37  C   UNK     0     157.978 151.094 113.374  0.00  0.00     0.029 C 
HETATM   38  C   UNK     0     158.349 153.327 111.963  0.00  0.00     0.148 C 
HETATM   39  C   UNK     0     157.232 154.020 112.766  0.00  0.00     0.144 A 
HETATM   40  O   UNK     0     156.489 153.249 113.873  0.00  0.00    -0.322 OA
HETATM   41  O   UNK     0     159.093 154.098 110.856  0.00  0.00    -0.189 OA
HETATM   42  C   UNK     0     156.860 155.483 112.462  0.00  0.00     0.151 A 
HETATM   43  C   UNK     0     154.229 150.945 117.219  0.00  0.00     0.030 C 
HETATM   44  C   UNK     0     152.932 151.750 118.152  0.00  0.00    -0.026 C 
HETATM   45  C   UNK     0     155.743 156.176 113.265  0.00  0.00     0.004 A 
HETATM   46  C   UNK     0     155.014 155.355 114.380  0.00  0.00     0.002 A 
HETATM   47  C   UNK     0     155.372 153.942 114.676  0.00  0.00     0.175 A 
HETATM   48  O   UNK     0     157.603 156.253 111.356  0.00  0.00    -0.188 OA
HETATM   49  C   UNK     0     152.603 153.091 117.860  0.00  0.00    -0.005 C 
HETATM   50  C   UNK     0     153.459 153.793 116.672  0.00  0.00    -0.005 C 
HETATM   51  C   UNK     0     153.695 155.214 115.775  0.00  0.00    -0.024 C 
HETATM   52  C   UNK     0     155.408 157.623 112.931  0.00  0.00     0.033 C 
HETATM   53  O   UNK     0     159.828 143.702 114.944  0.00  0.00     0.000 OA
HETATM   54  C   UNK     0     152.817 156.441 116.089  0.00  0.00     0.031 C 
ENDROOT
BRANCH  16  55
HETATM   55  C   UNK     0     163.933 149.864 107.947  0.00  0.00     0.072 A 
HETATM   56  C   UNK     0     163.577 149.623 106.469  0.00  0.00     0.007 A 
HETATM   57  C   UNK     0     164.321 150.393 105.362  0.00  0.00     0.056 A 
HETATM   58  C   UNK     0     165.421 151.405 105.734  0.00  0.00     0.127 A 
HETATM   59  C   UNK     0     165.777 151.647 107.212  0.00  0.00     0.093 A 
HETATM   60  O   UNK     0     166.164 152.175 104.627  0.00  0.00    -0.193 OA
HETATM   61  C   UNK     0     165.033 150.876 108.319  0.00  0.00     0.053 A 
BRANCH  59  62
HETATM   62  O   UNK     0     166.877 152.658 107.584  0.00  0.00    -0.331 OA
HETATM   63  C   UNK     0     166.564 154.166 107.594  0.00  0.00     0.181 C 
ENDBRANCH  59  62
ENDBRANCH  16  55
BRANCH  28  64
HETATM   64  O   UNK     0     155.376 146.549 118.105  0.00  0.00    -0.333 OA
HETATM   65  C   UNK     0     155.615 146.904 119.584  0.00  0.00     0.181 C 
ENDBRANCH  28  64
TORSDOF 3
ENDMDL
MODEL 10
REMARK VINA RESULT:     -10.2      3.041     13.659
REMARK  3 active torsions:
REMARK  status: ('A' for Active; 'I' for Inactive)
REMARK    1  A    between atoms: C_16  and  C_21 
REMARK    2  A    between atoms: C_24  and  O_62 
REMARK    3  A    between atoms: C_34  and  O_35 
ROOT
HETATM    1  C   UNK     0     166.540 147.991 122.523  0.00  0.00     0.018 A 
HETATM    2  C   UNK     0     165.976 148.494 123.865  0.00  0.00     0.166 A 
HETATM    3  C   UNK     0     166.551 146.483 122.210  0.00  0.00     0.004 A 
HETATM    4  N   UNK     0     165.425 147.490 124.894  0.00  0.00    -0.347 N 
HETATM    5  C   UNK     0     165.999 145.479 123.238  0.00  0.00     0.024 A 
HETATM    6  C   UNK     0     165.436 145.982 124.580  0.00  0.00     0.099 A 
HETATM    7  C   UNK     0     165.965 150.002 124.178  0.00  0.00     0.281 C 
HETATM    8  O   UNK     0     165.402 150.506 125.520  0.00  0.00    -0.189 OA
HETATM    9  O   UNK     0     164.850 149.501 126.550  0.00  0.00    -0.196 OA
HETATM   10  C   UNK     0     164.861 147.994 126.236  0.00  0.00     0.265 A 
HETATM   11  C   UNK     0     164.309 146.990 127.265  0.00  0.00     0.231 A 
HETATM   12  O   UNK     0     164.321 145.481 126.952  0.00  0.00    -0.216 OA
HETATM   13  C   UNK     0     166.506 152.515 123.462  0.00  0.00     0.175 A 
HETATM   14  C   UNK     0     165.942 153.018 124.804  0.00  0.00     0.075 A 
HETATM   15  O   UNK     0     166.517 151.007 123.149  0.00  0.00    -0.336 OA
HETATM   16  C   UNK     0     167.046 155.027 122.747  0.00  0.00     0.065 A 
HETATM   17  O   UNK     0     166.483 155.530 124.089  0.00  0.00    -0.317 OA
HETATM   18  C   UNK     0     167.057 153.519 122.434  0.00  0.00    -0.008 A 
HETATM   19  C   UNK     0     165.931 154.526 125.119  0.00  0.00     0.072 A 
HETATM   20  C   UNK     0     167.621 153.016 121.092  0.00  0.00     0.030 C 
HETATM   21  O   UNK     0     163.734 149.000 128.921  0.00  0.00    -0.365 OA
HETATM   22  C   UNK     0     163.746 147.493 128.606  0.00  0.00     0.149 A 
HETATM   23  C   UNK     0     163.172 149.503 130.262  0.00  0.00     0.151 A 
HETATM   24  C   UNK     0     162.620 148.499 131.290  0.00  0.00     0.021 A 
HETATM   25  C   UNK     0     163.194 146.488 129.635  0.00  0.00     0.030 A 
HETATM   26  C   UNK     0     162.631 146.991 130.977  0.00  0.00     0.004 A 
HETATM   27  C   UNK     0     163.160 151.011 130.575  0.00  0.00     0.071 C 
HETATM   28  C   UNK     0     162.597 151.515 131.918  0.00  0.00     0.066 C 
HETATM   29  C   UNK     0     163.137 154.028 131.202  0.00  0.00     0.028 C 
HETATM   30  C   UNK     0     162.585 153.023 132.231  0.00  0.00    -0.025 C 
HETATM   31  C   UNK     0     162.022 153.526 133.573  0.00  0.00     0.028 C 
HETATM   32  C   UNK     0     163.206 144.981 129.322  0.00  0.00     0.003 C 
HETATM   33  C   UNK     0     165.367 155.029 126.461  0.00  0.00    -0.021 C 
HETATM   34  C   UNK     0     164.816 154.026 127.489  0.00  0.00     0.028 C 
HETATM   35  C   UNK     0     165.356 156.537 126.774  0.00  0.00     0.048 C 
HETATM   36  C   UNK     0     164.793 157.041 128.116  0.00  0.00    -0.012 C 
HETATM   37  C   UNK     0     164.241 156.036 129.145  0.00  0.00     0.029 C 
HETATM   38  C   UNK     0     164.781 158.549 128.429  0.00  0.00     0.148 C 
HETATM   39  C   UNK     0     164.218 159.052 129.771  0.00  0.00     0.144 A 
HETATM   40  O   UNK     0     163.666 158.048 130.800  0.00  0.00    -0.322 OA
HETATM   41  O   UNK     0     165.333 159.553 127.400  0.00  0.00    -0.189 OA
HETATM   42  C   UNK     0     164.207 160.560 130.084  0.00  0.00     0.151 A 
HETATM   43  C   UNK     0     161.995 155.035 133.922  0.00  0.00     0.030 C 
HETATM   44  C   UNK     0     161.341 155.620 135.481  0.00  0.00    -0.026 C 
HETATM   45  C   UNK     0     163.644 161.064 131.426  0.00  0.00     0.004 A 
HETATM   46  C   UNK     0     163.093 160.008 132.442  0.00  0.00     0.002 A 
HETATM   47  C   UNK     0     163.103 158.551 132.142  0.00  0.00     0.175 A 
HETATM   48  O   UNK     0     164.759 161.564 129.056  0.00  0.00    -0.188 OA
HETATM   49  C   UNK     0     161.338 157.006 135.751  0.00  0.00    -0.005 C 
HETATM   50  C   UNK     0     161.947 157.961 134.587  0.00  0.00    -0.005 C 
HETATM   51  C   UNK     0     162.290 159.559 134.132  0.00  0.00    -0.024 C 
HETATM   52  C   UNK     0     163.653 162.563 131.693  0.00  0.00     0.033 C 
HETATM   53  O   UNK     0     164.278 148.410 127.606  0.00  0.00     0.000 OA
HETATM   54  C   UNK     0     161.946 160.697 135.112  0.00  0.00     0.031 C 
ENDROOT
BRANCH  16  55
HETATM   55  C   UNK     0     167.598 156.031 121.718  0.00  0.00     0.072 A 
HETATM   56  C   UNK     0     169.077 156.457 121.775  0.00  0.00     0.007 A 
HETATM   57  C   UNK     0     169.629 157.462 120.746  0.00  0.00     0.056 A 
HETATM   58  C   UNK     0     168.702 158.041 119.660  0.00  0.00     0.127 A 
HETATM   59  C   UNK     0     167.223 157.615 119.604  0.00  0.00     0.093 A 
HETATM   60  O   UNK     0     169.254 159.045 118.632  0.00  0.00    -0.193 OA
HETATM   61  C   UNK     0     166.671 156.610 120.633  0.00  0.00     0.053 A 
BRANCH  59  62
HETATM   62  O   UNK     0     166.296 158.193 118.520  0.00  0.00    -0.331 OA
HETATM   63  C   UNK     0     164.987 158.899 118.921  0.00  0.00     0.181 C 
ENDBRANCH  59  62
ENDBRANCH  16  55
BRANCH  28  64
HETATM   64  O   UNK     0     162.045 150.510 132.947  0.00  0.00    -0.333 OA
HETATM   65  C   UNK     0     160.531 150.244 133.027  0.00  0.00     0.181 C 
ENDBRANCH  28  64
TORSDOF 3
ENDMDL
