MODEL 1
REMARK VINA RESULT:      -7.3      0.000      0.000
REMARK  2 active torsions:
REMARK  status: ('A' for Active; 'I' for Inactive)
REMARK    1  A    between atoms: S_1  and  O_7 
REMARK    2  A    between atoms: O_7  and  C_18 
ROOT
HETATM    1  O   UNK     0     152.106 147.820 142.253  0.00  0.00    -0.342 OA
HETATM    2  O   UNK     0     149.829 150.723 143.634  0.00  0.00     0.000 OA
HETATM    3  O   UNK     0     152.501 149.862 143.604  0.00  0.00    -0.329 OA
HETATM    4  O   UNK     0     148.786 147.026 141.127  0.00  0.00    -0.343 OA
HETATM    5  O   UNK     0     146.893 148.518 141.699  0.00  0.00    -0.344 OA
HETATM    6  C   UNK     0     150.761 148.528 142.440  0.00  0.00     0.202 A 
HETATM    7  C   UNK     0     149.339 148.187 141.957  0.00  0.00     0.187 A 
HETATM    8  C   UNK     0     151.006 149.795 143.278  0.00  0.00     0.185 A 
HETATM    9  C   UNK     0     148.162 149.114 142.313  0.00  0.00     0.168 A 
HETATM   10  C   UNK     0     148.408 150.383 143.152  0.00  0.00     0.024 A 
HETATM   11  C   UNK     0     153.179 148.643 142.971  0.00  0.00     0.187 A 
HETATM   12  C   UNK     0     147.278 147.230 140.967  0.00  0.00     0.186 A 
HETATM   13  C   UNK     0     151.252 151.063 144.117  0.00  0.00     0.143 A 
HETATM   14  C   UNK     0     154.537 149.114 143.523  0.00  0.00     0.061 C 
HETATM   15  C   UNK     0     154.249 147.624 142.538  0.00  0.00     0.061 C 
HETATM   16  C   UNK     0     147.190 145.933 140.141  0.00  0.00     0.061 C 
HETATM   17  C   UNK     0     145.807 147.024 140.559  0.00  0.00     0.061 C 
ENDROOT
BRANCH  13  18
HETATM   18  O   UNK     0     152.674 151.404 144.600  0.00  0.00    -0.212 OA
BRANCH  18  19
HETATM   19  S   UNK     0     152.915 152.656 145.464  0.00  0.00     0.406 S 
HETATM   20  O   UNK     0     151.593 152.396 146.210  0.00  0.00    -0.172 OA
HETATM   21  O   UNK     0     154.238 152.916 144.718  0.00  0.00    -0.172 OA
HETATM   22  N   UNK     0     153.156 153.908 146.327  0.00  0.00    -0.021 N 
ENDBRANCH  18  19
ENDBRANCH  13  18
TORSDOF 2
ENDMDL
MODEL 2
REMARK VINA RESULT:      -7.3      2.475      4.180
REMARK  2 active torsions:
REMARK  status: ('A' for Active; 'I' for Inactive)
REMARK    1  A    between atoms: S_1  and  O_7 
REMARK    2  A    between atoms: O_7  and  C_18 
ROOT
HETATM    1  O   UNK     0     147.266 149.059 143.189  0.00  0.00    -0.342 OA
HETATM    2  O   UNK     0     150.135 147.546 140.954  0.00  0.00     0.000 OA
HETATM    3  O   UNK     0     149.717 149.395 143.024  0.00  0.00    -0.329 OA
HETATM    4  O   UNK     0     145.626 146.707 141.020  0.00  0.00    -0.343 OA
HETATM    5  O   UNK     0     146.945 145.422 139.362  0.00  0.00    -0.344 OA
HETATM    6  C   UNK     0     147.794 148.136 142.087  0.00  0.00     0.202 A 
HETATM    7  C   UNK     0     147.091 147.128 141.158  0.00  0.00     0.187 A 
HETATM    8  C   UNK     0     149.316 148.345 141.985  0.00  0.00     0.185 A 
HETATM    9  C   UNK     0     147.910 146.330 140.127  0.00  0.00     0.168 A 
HETATM   10  C   UNK     0     149.433 146.539 140.025  0.00  0.00     0.024 A 
HETATM   11  C   UNK     0     148.451 149.835 143.766  0.00  0.00     0.187 A 
HETATM   12  C   UNK     0     145.535 145.655 139.912  0.00  0.00     0.186 A 
HETATM   13  C   UNK     0     150.838 148.554 141.883  0.00  0.00     0.143 A 
HETATM   14  C   UNK     0     149.291 150.802 144.622  0.00  0.00     0.061 C 
HETATM   15  C   UNK     0     147.503 150.556 144.742  0.00  0.00     0.061 C 
HETATM   16  C   UNK     0     144.014 145.556 140.132  0.00  0.00     0.061 C 
HETATM   17  C   UNK     0     144.977 144.617 138.920  0.00  0.00     0.061 C 
ENDROOT
BRANCH  13  18
HETATM   18  O   UNK     0     151.541 149.562 142.812  0.00  0.00    -0.212 OA
BRANCH  18  19
HETATM   19  S   UNK     0     153.056 149.448 143.066  0.00  0.00     0.406 S 
HETATM   20  O   UNK     0     152.909 147.928 143.265  0.00  0.00    -0.172 OA
HETATM   21  O   UNK     0     153.204 150.968 142.867  0.00  0.00    -0.172 OA
HETATM   22  N   UNK     0     154.570 149.335 143.320  0.00  0.00    -0.021 N 
ENDBRANCH  18  19
ENDBRANCH  13  18
TORSDOF 2
ENDMDL
MODEL 3
REMARK VINA RESULT:      -7.2     86.395     88.444
REMARK  2 active torsions:
REMARK  status: ('A' for Active; 'I' for Inactive)
REMARK    1  A    between atoms: S_1  and  O_7 
REMARK    2  A    between atoms: O_7  and  C_18 
ROOT
HETATM    1  O   UNK     0     187.569 129.035 222.504  0.00  0.00    -0.342 OA
HETATM    2  O   UNK     0     188.928 128.400 218.861  0.00  0.00     0.000 OA
HETATM    3  O   UNK     0     189.612 129.689 221.259  0.00  0.00    -0.329 OA
HETATM    4  O   UNK     0     185.050 127.036 220.898  0.00  0.00    -0.343 OA
HETATM    5  O   UNK     0     185.355 126.310 218.548  0.00  0.00    -0.344 OA
HETATM    6  C   UNK     0     187.470 128.445 221.094  0.00  0.00     0.202 A 
HETATM    7  C   UNK     0     186.390 127.588 220.407  0.00  0.00     0.187 A 
HETATM    8  C   UNK     0     188.738 128.851 220.322  0.00  0.00     0.185 A 
HETATM    9  C   UNK     0     186.580 127.137 218.947  0.00  0.00     0.168 A 
HETATM   10  C   UNK     0     187.849 127.543 218.174  0.00  0.00     0.024 A 
HETATM   11  C   UNK     0     188.890 129.802 222.605  0.00  0.00     0.187 A 
HETATM   12  C   UNK     0     184.411 126.247 219.752  0.00  0.00     0.186 A 
HETATM   13  C   UNK     0     190.007 129.257 219.549  0.00  0.00     0.143 A 
HETATM   14  C   UNK     0     190.051 130.652 223.155  0.00  0.00     0.061 C 
HETATM   15  C   UNK     0     188.560 130.175 224.063  0.00  0.00     0.061 C 
HETATM   16  C   UNK     0     183.203 125.922 220.650  0.00  0.00     0.061 C 
HETATM   17  C   UNK     0     183.426 125.393 218.933  0.00  0.00     0.061 C 
ENDROOT
BRANCH  13  18
HETATM   18  O   UNK     0     191.087 130.114 220.237  0.00  0.00    -0.212 OA
BRANCH  18  19
HETATM   19  S   UNK     0     192.148 130.841 219.390  0.00  0.00     0.406 S 
HETATM   20  O   UNK     0     192.932 131.187 220.669  0.00  0.00    -0.172 OA
HETATM   21  O   UNK     0     191.363 130.496 218.110  0.00  0.00    -0.172 OA
HETATM   22  N   UNK     0     193.208 131.568 218.543  0.00  0.00    -0.021 N 
ENDBRANCH  18  19
ENDBRANCH  13  18
TORSDOF 2
ENDMDL
MODEL 4
REMARK VINA RESULT:      -7.2     13.958     16.596
REMARK  2 active torsions:
REMARK  status: ('A' for Active; 'I' for Inactive)
REMARK    1  A    between atoms: S_1  and  O_7 
REMARK    2  A    between atoms: O_7  and  C_18 
ROOT
HETATM    1  O   UNK     0     162.623 159.792 135.350  0.00  0.00    -0.342 OA
HETATM    2  O   UNK     0     160.289 156.708 136.097  0.00  0.00     0.000 OA
HETATM    3  O   UNK     0     161.960 157.756 134.100  0.00  0.00    -0.329 OA
HETATM    4  O   UNK     0     161.328 160.372 138.653  0.00  0.00    -0.343 OA
HETATM    5  O   UNK     0     159.775 158.738 139.681  0.00  0.00    -0.344 OA
HETATM    6  C   UNK     0     161.667 158.987 136.235  0.00  0.00     0.202 A 
HETATM    7  C   UNK     0     161.112 159.236 137.651  0.00  0.00     0.187 A 
HETATM    8  C   UNK     0     161.255 157.723 135.459  0.00  0.00     0.185 A 
HETATM    9  C   UNK     0     160.147 158.221 138.289  0.00  0.00     0.168 A 
HETATM   10  C   UNK     0     159.735 156.956 137.512  0.00  0.00     0.024 A 
HETATM   11  C   UNK     0     162.803 159.033 134.034  0.00  0.00     0.187 A 
HETATM   12  C   UNK     0     160.503 160.065 139.906  0.00  0.00     0.186 A 
HETATM   13  C   UNK     0     160.844 156.459 134.682  0.00  0.00     0.143 A 
HETATM   14  C   UNK     0     163.272 158.648 132.618  0.00  0.00     0.061 C 
HETATM   15  C   UNK     0     163.755 160.134 133.530  0.00  0.00     0.061 C 
HETATM   16  C   UNK     0     161.004 161.369 140.555  0.00  0.00     0.061 C 
HETATM   17  C   UNK     0     159.869 160.175 141.305  0.00  0.00     0.061 C 
ENDROOT
BRANCH  13  18
HETATM   18  O   UNK     0     161.398 156.210 133.267  0.00  0.00    -0.212 OA
BRANCH  18  19
HETATM   19  S   UNK     0     161.366 154.792 132.665  0.00  0.00     0.406 S 
HETATM   20  O   UNK     0     161.095 155.390 131.271  0.00  0.00    -0.172 OA
HETATM   21  O   UNK     0     161.636 154.194 134.059  0.00  0.00    -0.172 OA
HETATM   22  N   UNK     0     161.333 153.375 132.064  0.00  0.00    -0.021 N 
ENDBRANCH  18  19
ENDBRANCH  13  18
TORSDOF 2
ENDMDL
MODEL 5
REMARK VINA RESULT:      -7.0      3.662      5.916
REMARK  2 active torsions:
REMARK  status: ('A' for Active; 'I' for Inactive)
REMARK    1  A    between atoms: S_1  and  O_7 
REMARK    2  A    between atoms: O_7  and  C_18 
ROOT
HETATM    1  O   UNK     0     152.370 151.248 147.644  0.00  0.00    -0.342 OA
HETATM    2  O   UNK     0     149.199 151.415 145.314  0.00  0.00     0.000 OA
HETATM    3  O   UNK     0     150.218 152.477 147.704  0.00  0.00    -0.329 OA
HETATM    4  O   UNK     0     153.084 149.007 144.925  0.00  0.00    -0.343 OA
HETATM    5  O   UNK     0     151.425 148.691 143.111  0.00  0.00    -0.344 OA
HETATM    6  C   UNK     0     151.566 150.849 146.403  0.00  0.00     0.202 A 
HETATM    7  C   UNK     0     151.872 149.889 145.238  0.00  0.00     0.187 A 
HETATM    8  C   UNK     0     150.230 151.612 146.440  0.00  0.00     0.185 A 
HETATM    9  C   UNK     0     150.841 149.692 144.111  0.00  0.00     0.168 A 
HETATM   10  C   UNK     0     149.504 150.456 144.149  0.00  0.00     0.024 A 
HETATM   11  C   UNK     0     151.539 152.252 148.445  0.00  0.00     0.187 A 
HETATM   12  C   UNK     0     152.808 148.268 143.613  0.00  0.00     0.186 A 
HETATM   13  C   UNK     0     148.893 152.376 146.478  0.00  0.00     0.143 A 
HETATM   14  C   UNK     0     151.092 153.241 149.538  0.00  0.00     0.061 C 
HETATM   15  C   UNK     0     152.663 152.344 149.494  0.00  0.00     0.061 C 
HETATM   16  C   UNK     0     154.181 147.579 143.713  0.00  0.00     0.061 C 
HETATM   17  C   UNK     0     152.969 147.347 142.389  0.00  0.00     0.061 C 
ENDROOT
BRANCH  13  18
HETATM   18  O   UNK     0     148.587 153.336 147.643  0.00  0.00    -0.212 OA
BRANCH  18  19
HETATM   19  S   UNK     0     147.326 154.221 147.601  0.00  0.00     0.406 S 
HETATM   20  O   UNK     0     147.733 154.734 146.207  0.00  0.00    -0.172 OA
HETATM   21  O   UNK     0     146.920 153.708 148.996  0.00  0.00    -0.172 OA
HETATM   22  N   UNK     0     146.067 155.105 147.560  0.00  0.00    -0.021 N 
ENDBRANCH  18  19
ENDBRANCH  13  18
TORSDOF 2
ENDMDL
MODEL 6
REMARK VINA RESULT:      -7.0      2.473      3.334
REMARK  2 active torsions:
REMARK  status: ('A' for Active; 'I' for Inactive)
REMARK    1  A    between atoms: S_1  and  O_7 
REMARK    2  A    between atoms: O_7  and  C_18 
ROOT
HETATM    1  O   UNK     0     150.076 144.798 142.556  0.00  0.00    -0.342 OA
HETATM    2  O   UNK     0     149.088 148.600 142.267  0.00  0.00     0.000 OA
HETATM    3  O   UNK     0     151.208 146.944 143.067  0.00  0.00    -0.329 OA
HETATM    4  O   UNK     0     146.737 144.802 141.223  0.00  0.00    -0.343 OA
HETATM    5  O   UNK     0     145.568 146.948 140.815  0.00  0.00    -0.344 OA
HETATM    6  C   UNK     0     149.112 145.934 142.202  0.00  0.00     0.202 A 
HETATM    7  C   UNK     0     147.681 145.935 141.631  0.00  0.00     0.187 A 
HETATM    8  C   UNK     0     149.815 147.266 142.520  0.00  0.00     0.185 A 
HETATM    9  C   UNK     0     146.955 147.269 141.378  0.00  0.00     0.168 A 
HETATM   10  C   UNK     0     147.658 148.602 141.696  0.00  0.00     0.024 A 
HETATM   11  C   UNK     0     151.368 145.421 143.089  0.00  0.00     0.187 A 
HETATM   12  C   UNK     0     145.433 145.426 140.719  0.00  0.00     0.186 A 
HETATM   13  C   UNK     0     150.519 148.599 142.838  0.00  0.00     0.143 A 
HETATM   14  C   UNK     0     152.789 145.580 143.661  0.00  0.00     0.061 C 
HETATM   15  C   UNK     0     151.963 144.014 143.287  0.00  0.00     0.061 C 
HETATM   16  C   UNK     0     144.864 144.021 140.453  0.00  0.00     0.061 C 
HETATM   17  C   UNK     0     144.010 145.588 140.155  0.00  0.00     0.061 C 
ENDROOT
BRANCH  13  18
HETATM   18  O   UNK     0     151.949 148.598 143.409  0.00  0.00    -0.212 OA
BRANCH  18  19
HETATM   19  S   UNK     0     152.871 149.810 143.180  0.00  0.00     0.406 S 
HETATM   20  O   UNK     0     154.105 148.899 143.325  0.00  0.00    -0.172 OA
HETATM   21  O   UNK     0     151.637 150.721 143.034  0.00  0.00    -0.172 OA
HETATM   22  N   UNK     0     153.792 151.022 142.951  0.00  0.00    -0.021 N 
ENDBRANCH  18  19
ENDBRANCH  13  18
TORSDOF 2
ENDMDL
MODEL 7
REMARK VINA RESULT:      -6.9      3.453      5.334
REMARK  2 active torsions:
REMARK  status: ('A' for Active; 'I' for Inactive)
REMARK    1  A    between atoms: S_1  and  O_7 
REMARK    2  A    between atoms: O_7  and  C_18 
ROOT
HETATM    1  O   UNK     0     147.478 152.673 146.047  0.00  0.00    -0.342 OA
HETATM    2  O   UNK     0     150.848 150.661 146.383  0.00  0.00     0.000 OA
HETATM    3  O   UNK     0     149.445 152.793 147.552  0.00  0.00    -0.329 OA
HETATM    4  O   UNK     0     147.352 150.191 143.450  0.00  0.00    -0.343 OA
HETATM    5  O   UNK     0     149.230 148.600 143.164  0.00  0.00    -0.344 OA
HETATM    6  C   UNK     0     148.459 151.575 145.627  0.00  0.00     0.202 A 
HETATM    7  C   UNK     0     148.405 150.511 144.514  0.00  0.00     0.187 A 
HETATM    8  C   UNK     0     149.680 151.649 146.561  0.00  0.00     0.185 A 
HETATM    9  C   UNK     0     149.572 149.523 144.336  0.00  0.00     0.168 A 
HETATM   10  C   UNK     0     150.794 149.598 145.271  0.00  0.00     0.024 A 
HETATM   11  C   UNK     0     148.087 153.424 147.233  0.00  0.00     0.187 A 
HETATM   12  C   UNK     0     147.861 149.012 142.617  0.00  0.00     0.186 A 
HETATM   13  C   UNK     0     150.902 151.724 147.496  0.00  0.00     0.143 A 
HETATM   14  C   UNK     0     148.284 154.427 148.386  0.00  0.00     0.061 C 
HETATM   15  C   UNK     0     146.849 154.340 147.287  0.00  0.00     0.061 C 
HETATM   16  C   UNK     0     146.579 149.061 141.765  0.00  0.00     0.061 C 
HETATM   17  C   UNK     0     147.951 147.899 141.556  0.00  0.00     0.061 C 
ENDROOT
BRANCH  13  18
HETATM   18  O   UNK     0     150.956 152.788 148.609  0.00  0.00    -0.212 OA
BRANCH  18  19
HETATM   19  S   UNK     0     151.772 152.523 149.889  0.00  0.00     0.406 S 
HETATM   20  O   UNK     0     150.556 152.922 150.746  0.00  0.00    -0.172 OA
HETATM   21  O   UNK     0     152.987 152.124 149.032  0.00  0.00    -0.172 OA
HETATM   22  N   UNK     0     152.587 152.258 151.167  0.00  0.00    -0.021 N 
ENDBRANCH  18  19
ENDBRANCH  13  18
TORSDOF 2
ENDMDL
MODEL 8
REMARK VINA RESULT:      -6.9      3.980      4.945
REMARK  2 active torsions:
REMARK  status: ('A' for Active; 'I' for Inactive)
REMARK    1  A    between atoms: S_1  and  O_7 
REMARK    2  A    between atoms: O_7  and  C_18 
ROOT
HETATM    1  O   UNK     0     149.768 143.111 141.521  0.00  0.00    -0.342 OA
HETATM    2  O   UNK     0     149.048 146.503 143.388  0.00  0.00     0.000 OA
HETATM    3  O   UNK     0     151.002 144.501 143.162  0.00  0.00    -0.329 OA
HETATM    4  O   UNK     0     146.527 144.151 140.363  0.00  0.00    -0.343 OA
HETATM    5  O   UNK     0     145.527 146.256 141.204  0.00  0.00    -0.344 OA
HETATM    6  C   UNK     0     148.903 144.332 141.846  0.00  0.00     0.202 A 
HETATM    7  C   UNK     0     147.515 144.777 141.350  0.00  0.00     0.187 A 
HETATM    8  C   UNK     0     149.669 145.195 142.865  0.00  0.00     0.185 A 
HETATM    9  C   UNK     0     146.893 146.086 141.873  0.00  0.00     0.168 A 
HETATM   10  C   UNK     0     147.660 146.949 142.893  0.00  0.00     0.024 A 
HETATM   11  C   UNK     0     151.061 143.215 142.332  0.00  0.00     0.187 A 
HETATM   12  C   UNK     0     145.301 145.063 140.273  0.00  0.00     0.186 A 
HETATM   13  C   UNK     0     150.436 146.058 143.885  0.00  0.00     0.143 A 
HETATM   14  C   UNK     0     152.451 142.903 142.919  0.00  0.00     0.061 C 
HETATM   15  C   UNK     0     151.550 141.889 141.721  0.00  0.00     0.061 C 
HETATM   16  C   UNK     0     144.659 144.099 139.257  0.00  0.00     0.061 C 
HETATM   17  C   UNK     0     143.929 145.636 139.872  0.00  0.00     0.061 C 
ENDROOT
BRANCH  13  18
HETATM   18  O   UNK     0     151.825 145.613 144.381  0.00  0.00    -0.212 OA
BRANCH  18  19
HETATM   19  S   UNK     0     152.880 146.667 144.764  0.00  0.00     0.406 S 
HETATM   20  O   UNK     0     151.833 147.407 145.618  0.00  0.00    -0.172 OA
HETATM   21  O   UNK     0     153.928 145.928 143.911  0.00  0.00    -0.172 OA
HETATM   22  N   UNK     0     153.936 147.721 145.147  0.00  0.00    -0.021 N 
ENDBRANCH  18  19
ENDBRANCH  13  18
TORSDOF 2
ENDMDL
MODEL 9
REMARK VINA RESULT:      -6.9     26.823     27.896
REMARK  2 active torsions:
REMARK  status: ('A' for Active; 'I' for Inactive)
REMARK    1  A    between atoms: S_1  and  O_7 
REMARK    2  A    between atoms: O_7  and  C_18 
ROOT
HETATM    1  O   UNK     0     141.185 166.642 123.953  0.00  0.00    -0.342 OA
HETATM    2  O   UNK     0     144.522 166.321 121.884  0.00  0.00     0.000 OA
HETATM    3  O   UNK     0     143.582 166.375 124.529  0.00  0.00    -0.329 OA
HETATM    4  O   UNK     0     140.174 166.812 120.507  0.00  0.00    -0.343 OA
HETATM    5  O   UNK     0     141.872 166.661 118.708  0.00  0.00    -0.344 OA
HETATM    6  C   UNK     0     141.979 166.580 122.645  0.00  0.00     0.202 A 
HETATM    7  C   UNK     0     141.545 166.653 121.168  0.00  0.00     0.187 A 
HETATM    8  C   UNK     0     143.467 166.414 123.002  0.00  0.00     0.185 A 
HETATM    9  C   UNK     0     142.600 166.559 120.051  0.00  0.00     0.168 A 
HETATM   10  C   UNK     0     144.089 166.393 120.409  0.00  0.00     0.024 A 
HETATM   11  C   UNK     0     142.174 166.516 125.114  0.00  0.00     0.187 A 
HETATM   12  C   UNK     0     140.375 166.817 118.989  0.00  0.00     0.186 A 
HETATM   13  C   UNK     0     144.956 166.248 123.361  0.00  0.00     0.143 A 
HETATM   14  C   UNK     0     142.758 166.428 126.536  0.00  0.00     0.061 C 
HETATM   15  C   UNK     0     141.009 166.623 126.116  0.00  0.00     0.061 C 
HETATM   16  C   UNK     0     138.857 166.983 118.790  0.00  0.00     0.061 C 
HETATM   17  C   UNK     0     140.098 166.873 117.476  0.00  0.00     0.061 C 
ENDROOT
BRANCH  13  18
HETATM   18  O   UNK     0     145.389 166.175 124.837  0.00  0.00    -0.212 OA
BRANCH  18  19
HETATM   19  S   UNK     0     146.688 166.866 125.293  0.00  0.00     0.406 S 
HETATM   20  O   UNK     0     146.658 166.057 126.604  0.00  0.00    -0.172 OA
HETATM   21  O   UNK     0     146.718 167.676 123.983  0.00  0.00    -0.172 OA
HETATM   22  N   UNK     0     147.986 167.557 125.749  0.00  0.00    -0.021 N 
ENDBRANCH  18  19
ENDBRANCH  13  18
TORSDOF 2
ENDMDL
MODEL 10
REMARK VINA RESULT:      -6.9     21.398     23.434
REMARK  2 active torsions:
REMARK  status: ('A' for Active; 'I' for Inactive)
REMARK    1  A    between atoms: S_1  and  O_7 
REMARK    2  A    between atoms: O_7  and  C_18 
ROOT
HETATM    1  O   UNK     0     137.597 153.334 158.122  0.00  0.00    -0.342 OA
HETATM    2  O   UNK     0     134.528 153.788 160.550  0.00  0.00     0.000 OA
HETATM    3  O   UNK     0     135.236 154.038 157.845  0.00  0.00    -0.329 OA
HETATM    4  O   UNK     0     138.838 152.451 161.379  0.00  0.00    -0.343 OA
HETATM    5  O   UNK     0     137.333 152.546 163.346  0.00  0.00    -0.344 OA
HETATM    6  C   UNK     0     136.929 153.293 159.500  0.00  0.00     0.202 A 
HETATM    7  C   UNK     0     137.461 152.915 160.895  0.00  0.00     0.187 A 
HETATM    8  C   UNK     0     135.463 153.730 159.328  0.00  0.00     0.185 A 
HETATM    9  C   UNK     0     136.527 152.973 162.117  0.00  0.00     0.168 A 
HETATM   10  C   UNK     0     135.060 153.410 161.945  0.00  0.00     0.024 A 
HETATM   11  C   UNK     0     136.552 153.793 157.103  0.00  0.00     0.187 A 
HETATM   12  C   UNK     0     138.759 152.224 162.891  0.00  0.00     0.186 A 
HETATM   13  C   UNK     0     133.996 154.167 159.155  0.00  0.00     0.143 A 
HETATM   14  C   UNK     0     135.879 154.200 155.778  0.00  0.00     0.061 C 
HETATM   15  C   UNK     0     137.602 153.686 155.981  0.00  0.00     0.061 C 
HETATM   16  C   UNK     0     140.242 151.809 162.904  0.00  0.00     0.061 C 
HETATM   17  C   UNK     0     139.143 151.878 164.341  0.00  0.00     0.061 C 
ENDROOT
BRANCH  13  18
HETATM   18  O   UNK     0     133.464 154.545 157.760  0.00  0.00    -0.212 OA
BRANCH  18  19
HETATM   19  S   UNK     0     132.018 154.191 157.365  0.00  0.00     0.406 S 
HETATM   20  O   UNK     0     132.324 154.573 155.904  0.00  0.00    -0.172 OA
HETATM   21  O   UNK     0     131.713 153.809 158.825  0.00  0.00    -0.172 OA
HETATM   22  N   UNK     0     130.573 153.837 156.970  0.00  0.00    -0.021 N 
ENDBRANCH  18  19
ENDBRANCH  13  18
TORSDOF 2
ENDMDL
