MODEL 1
REMARK VINA RESULT:      -7.4      0.000      0.000
REMARK  4 active torsions:
REMARK  status: ('A' for Active; 'I' for Inactive)
REMARK    1  A    between atoms: C_2  and  C_16 
REMARK    2  A    between atoms: C_16  and  C_17 
REMARK    3  A    between atoms: C_17  and  C_18 
REMARK    4  A    between atoms: C_18  and  C_19 
ROOT
HETATM    1  C   UNK     0     102.177  83.324 109.689  0.00  0.00    -0.026 A 
HETATM    2  C   UNK     0     102.527  83.366 111.192  0.00  0.00    -0.041 A 
HETATM    3  C   UNK     0     103.713  84.236 111.682  0.00  0.00     0.076 A 
HETATM    4  C   UNK     0     104.537  85.052 110.671  0.00  0.00     0.109 A 
HETATM    5  C   UNK     0     103.005  84.143 108.681  0.00  0.00     0.067 A 
HETATM    6  C   UNK     0     104.185  85.005 109.182  0.00  0.00     0.003 A 
HETATM    7  C   UNK     0     103.494  84.926 106.177  0.00  0.00    -0.030 A 
HETATM    8  C   UNK     0     104.673  85.789 106.677  0.00  0.00    -0.031 A 
HETATM    9  C   UNK     0     105.011  85.820 108.188  0.00  0.00    -0.028 A 
HETATM   10  C   UNK     0     106.184  86.676 108.698  0.00  0.00     0.026 A 
HETATM   11  C   UNK     0     107.029  87.507 107.703  0.00  0.00     0.005 A 
HETATM   12  C   UNK     0     106.692  87.476 106.191  0.00  0.00     0.005 A 
HETATM   13  C   UNK     0     105.510  86.614 105.676  0.00  0.00     0.026 A 
HETATM   14  C   UNK     0     108.203  88.363 108.214  0.00  0.00     0.000 C 
HETATM   15  O   UNK     0     105.716  85.916 111.156  0.00  0.00    -0.195 OA
HETATM   16  C   UNK     0     102.661  84.105 107.179  0.00  0.00    -0.022 A 
HETATM   17  C   UNK     0     103.150  84.888 104.677  0.00  0.00     0.030 C 
HETATM   18  O   UNK     0     101.833  83.286 108.181  0.00  0.00     0.000 OA
ENDROOT
BRANCH   2  19
HETATM   19  C   UNK     0     101.701  82.548 112.202  0.00  0.00     0.022 C 
BRANCH  19  20
HETATM   20  C   UNK     0     102.332  81.332 112.906  0.00  0.00     0.004 C 
BRANCH  20  21
HETATM   21  C   UNK     0     102.376  79.968 112.192  0.00  0.00     0.000 C 
BRANCH  21  22
HETATM   22  C   UNK     0     101.488  79.714 110.961  0.00  0.00     0.000 C 
HETATM   23  C   UNK     0     100.019  79.291 111.146  0.00  0.00     0.000 C 
ENDBRANCH  21  22
ENDBRANCH  20  21
ENDBRANCH  19  20
ENDBRANCH   2  19
TORSDOF 4
ENDMDL
MODEL 2
REMARK VINA RESULT:      -6.9     11.480     14.548
REMARK  4 active torsions:
REMARK  status: ('A' for Active; 'I' for Inactive)
REMARK    1  A    between atoms: C_2  and  C_16 
REMARK    2  A    between atoms: C_16  and  C_17 
REMARK    3  A    between atoms: C_17  and  C_18 
REMARK    4  A    between atoms: C_18  and  C_19 
ROOT
HETATM    1  C   UNK     0      89.183  82.129 107.938  0.00  0.00    -0.026 A 
HETATM    2  C   UNK     0      88.344  80.840 107.824  0.00  0.00    -0.041 A 
HETATM    3  C   UNK     0      88.940  79.592 107.123  0.00  0.00     0.076 A 
HETATM    4  C   UNK     0      90.364  79.643 106.544  0.00  0.00     0.109 A 
HETATM    5  C   UNK     0      90.609  82.175 107.357  0.00  0.00     0.067 A 
HETATM    6  C   UNK     0      91.192  80.925 106.661  0.00  0.00     0.003 A 
HETATM    7  C   UNK     0      92.879  83.498 106.883  0.00  0.00    -0.030 A 
HETATM    8  C   UNK     0      93.462  82.248 106.188  0.00  0.00    -0.031 A 
HETATM    9  C   UNK     0      92.606  80.963 106.082  0.00  0.00    -0.028 A 
HETATM   10  C   UNK     0      93.176  79.712 105.390  0.00  0.00     0.026 A 
HETATM   11  C   UNK     0      94.606  79.735 104.799  0.00  0.00     0.005 A 
HETATM   12  C   UNK     0      95.463  81.020 104.905  0.00  0.00     0.005 A 
HETATM   13  C   UNK     0      94.889  82.283 105.602  0.00  0.00     0.026 A 
HETATM   14  C   UNK     0      95.176  78.482 104.107  0.00  0.00     0.000 C 
HETATM   15  O   UNK     0      90.957  78.404 105.848  0.00  0.00    -0.195 OA
HETATM   16  C   UNK     0      91.454  83.460 107.467  0.00  0.00    -0.022 A 
HETATM   17  C   UNK     0      93.722  84.781 106.994  0.00  0.00     0.030 C 
HETATM   18  O   UNK     0      90.032  83.418 108.048  0.00  0.00     0.000 OA
ENDROOT
BRANCH   2  19
HETATM   19  C   UNK     0      86.918  80.792 108.404  0.00  0.00     0.022 C 
BRANCH  19  20
HETATM   20  C   UNK     0      86.210  79.437 108.595  0.00  0.00     0.004 C 
BRANCH  20  21
HETATM   21  C   UNK     0      84.673  79.357 108.532  0.00  0.00     0.000 C 
BRANCH  21  22
HETATM   22  C   UNK     0      83.832  80.644 108.595  0.00  0.00     0.000 C 
HETATM   23  C   UNK     0      82.560  80.776 107.737  0.00  0.00     0.000 C 
ENDBRANCH  21  22
ENDBRANCH  20  21
ENDBRANCH  19  20
ENDBRANCH   2  19
TORSDOF 4
ENDMDL
MODEL 3
REMARK VINA RESULT:      -6.9      1.473      2.147
REMARK  4 active torsions:
REMARK  status: ('A' for Active; 'I' for Inactive)
REMARK    1  A    between atoms: C_2  and  C_16 
REMARK    2  A    between atoms: C_16  and  C_17 
REMARK    3  A    between atoms: C_17  and  C_18 
REMARK    4  A    between atoms: C_18  and  C_19 
ROOT
HETATM    1  C   UNK     0     101.292  81.872 109.189  0.00  0.00    -0.026 A 
HETATM    2  C   UNK     0     101.582  81.733 110.699  0.00  0.00    -0.041 A 
HETATM    3  C   UNK     0     102.629  82.659 111.370  0.00  0.00     0.076 A 
HETATM    4  C   UNK     0     103.375  83.710 110.530  0.00  0.00     0.109 A 
HETATM    5  C   UNK     0     102.041  82.927 108.354  0.00  0.00     0.067 A 
HETATM    6  C   UNK     0     103.082  83.843 109.034  0.00  0.00     0.003 A 
HETATM    7  C   UNK     0     102.509  84.129 106.017  0.00  0.00    -0.030 A 
HETATM    8  C   UNK     0     103.550  85.045 106.697  0.00  0.00    -0.031 A 
HETATM    9  C   UNK     0     103.830  84.892 108.212  0.00  0.00    -0.028 A 
HETATM   10  C   UNK     0     104.865  85.800 108.900  0.00  0.00     0.026 A 
HETATM   11  C   UNK     0     105.629  86.866 108.080  0.00  0.00     0.005 A 
HETATM   12  C   UNK     0     105.351  87.020 106.564  0.00  0.00     0.005 A 
HETATM   13  C   UNK     0     104.307  86.105 105.869  0.00  0.00     0.026 A 
HETATM   14  C   UNK     0     106.665  87.774 108.769  0.00  0.00     0.000 C 
HETATM   15  O   UNK     0     104.415  84.630 111.196  0.00  0.00    -0.195 OA
HETATM   16  C   UNK     0     101.756  83.071 106.846  0.00  0.00    -0.022 A 
HETATM   17  C   UNK     0     102.224  84.272 104.511  0.00  0.00     0.030 C 
HETATM   18  O   UNK     0     101.006  82.018 107.676  0.00  0.00     0.000 OA
ENDROOT
BRANCH   2  19
HETATM   19  C   UNK     0     100.834  80.679 111.536  0.00  0.00     0.022 C 
BRANCH  19  20
HETATM   20  C   UNK     0     100.040  79.561 110.834  0.00  0.00     0.004 C 
BRANCH  20  21
HETATM   21  C   UNK     0      99.136  78.626 111.659  0.00  0.00     0.000 C 
BRANCH  21  22
HETATM   22  C   UNK     0      97.605  78.747 111.554  0.00  0.00     0.000 C 
HETATM   23  C   UNK     0      96.743  78.747 112.830  0.00  0.00     0.000 C 
ENDBRANCH  21  22
ENDBRANCH  20  21
ENDBRANCH  19  20
ENDBRANCH   2  19
TORSDOF 4
ENDMDL
MODEL 4
REMARK VINA RESULT:      -6.5     11.222     14.199
REMARK  4 active torsions:
REMARK  status: ('A' for Active; 'I' for Inactive)
REMARK    1  A    between atoms: C_2  and  C_16 
REMARK    2  A    between atoms: C_16  and  C_17 
REMARK    3  A    between atoms: C_17  and  C_18 
REMARK    4  A    between atoms: C_18  and  C_19 
ROOT
HETATM    1  C   UNK     0      88.892  81.434 107.819  0.00  0.00    -0.026 A 
HETATM    2  C   UNK     0      88.144  80.120 107.512  0.00  0.00    -0.041 A 
HETATM    3  C   UNK     0      88.817  79.039 106.629  0.00  0.00     0.076 A 
HETATM    4  C   UNK     0      90.227  79.278 106.062  0.00  0.00     0.109 A 
HETATM    5  C   UNK     0      90.304  81.669 107.250  0.00  0.00     0.067 A 
HETATM    6  C   UNK     0      90.965  80.584 106.371  0.00  0.00     0.003 A 
HETATM    7  C   UNK     0      92.469  83.206 106.979  0.00  0.00    -0.030 A 
HETATM    8  C   UNK     0      93.130  82.121 106.101  0.00  0.00    -0.031 A 
HETATM    9  C   UNK     0      92.365  80.809 105.802  0.00  0.00    -0.028 A 
HETATM   10  C   UNK     0      93.013  79.721 104.927  0.00  0.00     0.026 A 
HETATM   11  C   UNK     0      94.430  79.935 104.345  0.00  0.00     0.005 A 
HETATM   12  C   UNK     0      95.196  81.247 104.643  0.00  0.00     0.005 A 
HETATM   13  C   UNK     0      94.544  82.346 105.524  0.00  0.00     0.026 A 
HETATM   14  C   UNK     0      95.078  78.846 103.470  0.00  0.00     0.000 C 
HETATM   15  O   UNK     0      90.897  78.205 105.185  0.00  0.00    -0.195 OA
HETATM   16  C   UNK     0      91.058  82.979 107.552  0.00  0.00    -0.022 A 
HETATM   17  C   UNK     0      93.222  84.514 107.282  0.00  0.00     0.030 C 
HETATM   18  O   UNK     0      89.650  82.749 108.123  0.00  0.00     0.000 OA
ENDROOT
BRANCH   2  19
HETATM   19  C   UNK     0      86.732  79.884 108.080  0.00  0.00     0.022 C 
BRANCH  19  20
HETATM   20  C   UNK     0      86.490  79.972 109.599  0.00  0.00     0.004 C 
BRANCH  20  21
HETATM   21  C   UNK     0      86.846  78.779 110.505  0.00  0.00     0.000 C 
BRANCH  21  22
HETATM   22  C   UNK     0      87.442  77.499 109.893  0.00  0.00     0.000 C 
HETATM   23  C   UNK     0      88.954  77.228 109.997  0.00  0.00     0.000 C 
ENDBRANCH  21  22
ENDBRANCH  20  21
ENDBRANCH  19  20
ENDBRANCH   2  19
TORSDOF 4
ENDMDL
MODEL 5
REMARK VINA RESULT:      -6.5     25.955     26.475
REMARK  4 active torsions:
REMARK  status: ('A' for Active; 'I' for Inactive)
REMARK    1  A    between atoms: C_2  and  C_16 
REMARK    2  A    between atoms: C_16  and  C_17 
REMARK    3  A    between atoms: C_17  and  C_18 
REMARK    4  A    between atoms: C_18  and  C_19 
ROOT
HETATM    1  C   UNK     0      79.535  89.002 118.072  0.00  0.00    -0.026 A 
HETATM    2  C   UNK     0      79.291  87.555 118.551  0.00  0.00    -0.041 A 
HETATM    3  C   UNK     0      79.857  87.091 119.917  0.00  0.00     0.076 A 
HETATM    4  C   UNK     0      80.659  88.071 120.790  0.00  0.00     0.109 A 
HETATM    5  C   UNK     0      80.339  89.980 118.950  0.00  0.00     0.067 A 
HETATM    6  C   UNK     0      80.898  89.505 120.310  0.00  0.00     0.003 A 
HETATM    7  C   UNK     0      81.391  92.398 119.362  0.00  0.00    -0.030 A 
HETATM    8  C   UNK     0      81.949  91.923 120.721  0.00  0.00    -0.031 A 
HETATM    9  C   UNK     0      81.696  90.469 121.186  0.00  0.00    -0.028 A 
HETATM   10  C   UNK     0      82.248  89.985 122.539  0.00  0.00     0.026 A 
HETATM   11  C   UNK     0      83.058  90.950 123.437  0.00  0.00     0.005 A 
HETATM   12  C   UNK     0      83.312  92.405 122.973  0.00  0.00     0.005 A 
HETATM   13  C   UNK     0      82.756  92.895 121.609  0.00  0.00     0.026 A 
HETATM   14  C   UNK     0      83.610  90.465 124.791  0.00  0.00     0.000 C 
HETATM   15  O   UNK     0      81.222  87.611 122.147  0.00  0.00    -0.195 OA
HETATM   16  C   UNK     0      80.586  91.426 118.478  0.00  0.00    -0.022 A 
HETATM   17  C   UNK     0      81.637  93.842 118.890  0.00  0.00     0.030 C 
HETATM   18  O   UNK     0      79.784  90.454 117.599  0.00  0.00     0.000 OA
ENDROOT
BRANCH   2  19
HETATM   19  C   UNK     0      78.488  86.576 117.675  0.00  0.00     0.022 C 
BRANCH  19  20
HETATM   20  C   UNK     0      78.973  86.242 116.251  0.00  0.00     0.004 C 
BRANCH  20  21
HETATM   21  C   UNK     0      77.971  86.225 115.082  0.00  0.00     0.000 C 
BRANCH  21  22
HETATM   22  C   UNK     0      77.542  87.545 114.416  0.00  0.00     0.000 C 
HETATM   23  C   UNK     0      76.629  88.528 115.172  0.00  0.00     0.000 C 
ENDBRANCH  21  22
ENDBRANCH  20  21
ENDBRANCH  19  20
ENDBRANCH   2  19
TORSDOF 4
ENDMDL
MODEL 6
REMARK VINA RESULT:      -6.3     26.013     29.082
REMARK  4 active torsions:
REMARK  status: ('A' for Active; 'I' for Inactive)
REMARK    1  A    between atoms: C_2  and  C_16 
REMARK    2  A    between atoms: C_16  and  C_17 
REMARK    3  A    between atoms: C_17  and  C_18 
REMARK    4  A    between atoms: C_18  and  C_19 
ROOT
HETATM    1  C   UNK     0      74.751  85.676 113.487  0.00  0.00    -0.026 A 
HETATM    2  C   UNK     0      73.911  86.961 113.331  0.00  0.00    -0.041 A 
HETATM    3  C   UNK     0      74.391  88.280 113.989  0.00  0.00     0.076 A 
HETATM    4  C   UNK     0      75.701  88.303 114.796  0.00  0.00     0.109 A 
HETATM    5  C   UNK     0      76.061  85.705 114.296  0.00  0.00     0.067 A 
HETATM    6  C   UNK     0      76.530  87.025 114.948  0.00  0.00     0.003 A 
HETATM    7  C   UNK     0      78.215  84.462 115.266  0.00  0.00    -0.030 A 
HETATM    8  C   UNK     0      78.683  85.781 115.918  0.00  0.00    -0.031 A 
HETATM    9  C   UNK     0      77.829  87.062 115.751  0.00  0.00    -0.028 A 
HETATM   10  C   UNK     0      78.286  88.382 116.396  0.00  0.00     0.026 A 
HETATM   11  C   UNK     0      79.599  88.434 117.212  0.00  0.00     0.005 A 
HETATM   12  C   UNK     0      80.454  87.154 117.380  0.00  0.00     0.005 A 
HETATM   13  C   UNK     0      79.995  85.821 116.730  0.00  0.00     0.026 A 
HETATM   14  C   UNK     0      80.055  89.756 117.857  0.00  0.00     0.000 C 
HETATM   15  O   UNK     0      76.179  89.612 115.451  0.00  0.00    -0.195 OA
HETATM   16  C   UNK     0      76.905  84.425 114.456  0.00  0.00    -0.022 A 
HETATM   17  C   UNK     0      79.057  83.183 115.426  0.00  0.00     0.030 C 
HETATM   18  O   UNK     0      75.598  84.392 113.649  0.00  0.00     0.000 OA
ENDROOT
BRANCH   2  19
HETATM   19  C   UNK     0      72.600  86.935 112.523  0.00  0.00     0.022 C 
BRANCH  19  20
HETATM   20  C   UNK     0      71.639  88.137 112.576  0.00  0.00     0.004 C 
BRANCH  20  21
HETATM   21  C   UNK     0      70.709  88.432 111.385  0.00  0.00     0.000 C 
BRANCH  21  22
HETATM   22  C   UNK     0      70.063  89.822 111.238  0.00  0.00     0.000 C 
HETATM   23  C   UNK     0      69.699  90.358 109.842  0.00  0.00     0.000 C 
ENDBRANCH  21  22
ENDBRANCH  20  21
ENDBRANCH  19  20
ENDBRANCH   2  19
TORSDOF 4
ENDMDL
MODEL 7
REMARK VINA RESULT:      -6.3     23.692     25.241
REMARK  4 active torsions:
REMARK  status: ('A' for Active; 'I' for Inactive)
REMARK    1  A    between atoms: C_2  and  C_16 
REMARK    2  A    between atoms: C_16  and  C_17 
REMARK    3  A    between atoms: C_17  and  C_18 
REMARK    4  A    between atoms: C_18  and  C_19 
ROOT
HETATM    1  C   UNK     0      80.512  87.243 100.137  0.00  0.00    -0.026 A 
HETATM    2  C   UNK     0      79.693  88.180 101.050  0.00  0.00    -0.041 A 
HETATM    3  C   UNK     0      79.651  89.701 100.753  0.00  0.00     0.076 A 
HETATM    4  C   UNK     0      80.424  90.271  99.551  0.00  0.00     0.109 A 
HETATM    5  C   UNK     0      81.285  87.819  98.935  0.00  0.00     0.067 A 
HETATM    6  C   UNK     0      81.235  89.337  98.649  0.00  0.00     0.003 A 
HETATM    7  C   UNK     0      82.874  87.473  96.819  0.00  0.00    -0.030 A 
HETATM    8  C   UNK     0      82.824  88.990  96.534  0.00  0.00    -0.031 A 
HETATM    9  C   UNK     0      81.998  89.916  97.459  0.00  0.00    -0.028 A 
HETATM   10  C   UNK     0      81.941  91.429  97.184  0.00  0.00     0.026 A 
HETATM   11  C   UNK     0      82.709  92.029  95.982  0.00  0.00     0.005 A 
HETATM   12  C   UNK     0      83.536  91.104  95.056  0.00  0.00     0.005 A 
HETATM   13  C   UNK     0      83.594  89.578  95.332  0.00  0.00     0.026 A 
HETATM   14  C   UNK     0      82.652  93.543  95.708  0.00  0.00     0.000 C 
HETATM   15  O   UNK     0      80.383  91.782  99.255  0.00  0.00    -0.195 OA
HETATM   16  C   UNK     0      82.104  86.890  98.019  0.00  0.00    -0.022 A 
HETATM   17  C   UNK     0      83.693  86.544  95.905  0.00  0.00     0.030 C 
HETATM   18  O   UNK     0      81.336  86.311  99.217  0.00  0.00     0.000 OA
ENDROOT
BRANCH   2  19
HETATM   19  C   UNK     0      78.920  87.606 102.252  0.00  0.00     0.022 C 
BRANCH  19  20
HETATM   20  C   UNK     0      78.564  88.516 103.442  0.00  0.00     0.004 C 
BRANCH  20  21
HETATM   21  C   UNK     0      78.522  87.936 104.868  0.00  0.00     0.000 C 
BRANCH  21  22
HETATM   22  C   UNK     0      79.814  87.421 105.528  0.00  0.00     0.000 C 
HETATM   23  C   UNK     0      81.150  88.143 105.272  0.00  0.00     0.000 C 
ENDBRANCH  21  22
ENDBRANCH  20  21
ENDBRANCH  19  20
ENDBRANCH   2  19
TORSDOF 4
ENDMDL
MODEL 8
REMARK VINA RESULT:      -6.2     38.207     40.995
REMARK  4 active torsions:
REMARK  status: ('A' for Active; 'I' for Inactive)
REMARK    1  A    between atoms: C_2  and  C_16 
REMARK    2  A    between atoms: C_16  and  C_17 
REMARK    3  A    between atoms: C_17  and  C_18 
REMARK    4  A    between atoms: C_18  and  C_19 
ROOT
HETATM    1  C   UNK     0     112.135 122.788 100.848  0.00  0.00    -0.026 A 
HETATM    2  C   UNK     0     112.241 121.458 101.624  0.00  0.00    -0.041 A 
HETATM    3  C   UNK     0     113.562 120.648 101.586  0.00  0.00     0.076 A 
HETATM    4  C   UNK     0     114.760 121.171 100.776  0.00  0.00     0.109 A 
HETATM    5  C   UNK     0     113.338 123.307 100.039  0.00  0.00     0.067 A 
HETATM    6  C   UNK     0     114.649 122.490 100.008  0.00  0.00     0.003 A 
HETATM    7  C   UNK     0     114.446 125.146  98.454  0.00  0.00    -0.030 A 
HETATM    8  C   UNK     0     115.757 124.330  98.423  0.00  0.00    -0.031 A 
HETATM    9  C   UNK     0     115.847 122.998  99.207  0.00  0.00    -0.028 A 
HETATM   10  C   UNK     0     117.148 122.176  99.184  0.00  0.00     0.026 A 
HETATM   11  C   UNK     0     118.369 122.678  98.377  0.00  0.00     0.005 A 
HETATM   12  C   UNK     0     118.280 124.011  97.592  0.00  0.00     0.005 A 
HETATM   13  C   UNK     0     116.969 124.841  97.615  0.00  0.00     0.026 A 
HETATM   14  C   UNK     0     119.671 121.855  98.354  0.00  0.00     0.000 C 
HETATM   15  O   UNK     0     116.073 120.366 100.737  0.00  0.00    -0.195 OA
HETATM   16  C   UNK     0     113.239 124.634  99.261  0.00  0.00    -0.022 A 
HETATM   17  C   UNK     0     114.347 126.472  97.678  0.00  0.00     0.030 C 
HETATM   18  O   UNK     0     112.036 124.120 100.067  0.00  0.00     0.000 OA
ENDROOT
BRANCH   2  19
HETATM   19  C   UNK     0     111.039 120.938 102.434  0.00  0.00     0.022 C 
BRANCH  19  20
HETATM   20  C   UNK     0     110.186 121.918 103.261  0.00  0.00     0.004 C 
BRANCH  20  21
HETATM   21  C   UNK     0     110.506 122.151 104.749  0.00  0.00     0.000 C 
BRANCH  21  22
HETATM   22  C   UNK     0     111.655 123.093 105.151  0.00  0.00     0.000 C 
HETATM   23  C   UNK     0     113.019 122.511 105.566  0.00  0.00     0.000 C 
ENDBRANCH  21  22
ENDBRANCH  20  21
ENDBRANCH  19  20
ENDBRANCH   2  19
TORSDOF 4
ENDMDL
MODEL 9
REMARK VINA RESULT:      -6.2     23.186     25.033
REMARK  4 active torsions:
REMARK  status: ('A' for Active; 'I' for Inactive)
REMARK    1  A    between atoms: C_2  and  C_16 
REMARK    2  A    between atoms: C_16  and  C_17 
REMARK    3  A    between atoms: C_17  and  C_18 
REMARK    4  A    between atoms: C_18  and  C_19 
ROOT
HETATM    1  C   UNK     0      79.919  90.105  99.777  0.00  0.00    -0.026 A 
HETATM    2  C   UNK     0      79.506  88.962 100.728  0.00  0.00    -0.041 A 
HETATM    3  C   UNK     0      80.159  87.564 100.581  0.00  0.00     0.076 A 
HETATM    4  C   UNK     0      81.215  87.321  99.489  0.00  0.00     0.109 A 
HETATM    5  C   UNK     0      80.977  89.856  98.686  0.00  0.00     0.067 A 
HETATM    6  C   UNK     0      81.621  88.458  98.549  0.00  0.00     0.003 A 
HETATM    7  C   UNK     0      82.454  90.736  96.644  0.00  0.00    -0.030 A 
HETATM    8  C   UNK     0      83.097  89.339  96.507  0.00  0.00    -0.031 A 
HETATM    9  C   UNK     0      82.671  88.203  97.469  0.00  0.00    -0.028 A 
HETATM   10  C   UNK     0      83.306  86.807  97.342  0.00  0.00     0.026 A 
HETATM   11  C   UNK     0      84.371  86.534  96.254  0.00  0.00     0.005 A 
HETATM   12  C   UNK     0      84.798  87.669  95.291  0.00  0.00     0.005 A 
HETATM   13  C   UNK     0      84.159  89.078  95.417  0.00  0.00     0.026 A 
HETATM   14  C   UNK     0      85.006  85.136  96.127  0.00  0.00     0.000 C 
HETATM   15  O   UNK     0      81.865  85.932  99.342  0.00  0.00    -0.195 OA
HETATM   16  C   UNK     0      81.395  90.993  97.733  0.00  0.00    -0.022 A 
HETATM   17  C   UNK     0      82.870  91.872  95.692  0.00  0.00     0.030 C 
HETATM   18  O   UNK     0      80.339  91.246  98.819  0.00  0.00     0.000 OA
ENDROOT
BRANCH   2  19
HETATM   19  C   UNK     0      78.448  89.209 101.820  0.00  0.00     0.022 C 
BRANCH  19  20
HETATM   20  C   UNK     0      78.887  89.635 103.233  0.00  0.00     0.004 C 
BRANCH  20  21
HETATM   21  C   UNK     0      78.994  88.584 104.354  0.00  0.00     0.000 C 
BRANCH  21  22
HETATM   22  C   UNK     0      80.377  88.125 104.850  0.00  0.00     0.000 C 
HETATM   23  C   UNK     0      80.486  87.015 105.912  0.00  0.00     0.000 C 
ENDBRANCH  21  22
ENDBRANCH  20  21
ENDBRANCH  19  20
ENDBRANCH   2  19
TORSDOF 4
ENDMDL
MODEL 10
REMARK VINA RESULT:      -5.9     46.808     51.153
REMARK  4 active torsions:
REMARK  status: ('A' for Active; 'I' for Inactive)
REMARK    1  A    between atoms: C_2  and  C_16 
REMARK    2  A    between atoms: C_16  and  C_17 
REMARK    3  A    between atoms: C_17  and  C_18 
REMARK    4  A    between atoms: C_18  and  C_19 
ROOT
HETATM    1  C   UNK     0     114.814 130.123  87.182  0.00  0.00    -0.026 A 
HETATM    2  C   UNK     0     114.021 130.434  85.895  0.00  0.00    -0.041 A 
HETATM    3  C   UNK     0     112.543 129.986  85.774  0.00  0.00     0.076 A 
HETATM    4  C   UNK     0     111.871 129.234  86.936  0.00  0.00     0.109 A 
HETATM    5  C   UNK     0     114.136 129.370  88.342  0.00  0.00     0.067 A 
HETATM    6  C   UNK     0     112.662 128.928  88.210  0.00  0.00     0.003 A 
HETATM    7  C   UNK     0     114.237 128.302  90.786  0.00  0.00    -0.030 A 
HETATM    8  C   UNK     0     112.763 127.861  90.654  0.00  0.00    -0.031 A 
HETATM    9  C   UNK     0     111.982 128.181  89.356  0.00  0.00    -0.028 A 
HETATM   10  C   UNK     0     110.513 127.745  89.214  0.00  0.00     0.026 A 
HETATM   11  C   UNK     0     109.812 126.988  90.366  0.00  0.00     0.005 A 
HETATM   12  C   UNK     0     110.592 126.667  91.665  0.00  0.00     0.005 A 
HETATM   13  C   UNK     0     112.074 127.105  91.811  0.00  0.00     0.026 A 
HETATM   14  C   UNK     0     108.342 126.553  90.223  0.00  0.00     0.000 C 
HETATM   15  O   UNK     0     110.401 128.788  86.817  0.00  0.00    -0.195 OA
HETATM   16  C   UNK     0     114.922 129.056  89.630  0.00  0.00    -0.022 A 
HETATM   17  C   UNK     0     115.022 127.989  92.073  0.00  0.00     0.030 C 
HETATM   18  O   UNK     0     115.602 129.807  88.476  0.00  0.00     0.000 OA
ENDROOT
BRANCH   2  19
HETATM   19  C   UNK     0     114.697 131.187  84.734  0.00  0.00     0.022 C 
BRANCH  19  20
HETATM   20  C   UNK     0     115.447 130.402  83.641  0.00  0.00     0.004 C 
BRANCH  20  21
HETATM   21  C   UNK     0     115.760 131.073  82.290  0.00  0.00     0.000 C 
BRANCH  21  22
HETATM   22  C   UNK     0     117.191 131.552  81.982  0.00  0.00     0.000 C 
HETATM   23  C   UNK     0     117.666 131.666  80.522  0.00  0.00     0.000 C 
ENDBRANCH  21  22
ENDBRANCH  20  21
ENDBRANCH  19  20
ENDBRANCH   2  19
TORSDOF 4
ENDMDL
