MODEL 1
REMARK VINA RESULT:      -7.7      0.000      0.000
REMARK  0 active torsions:
REMARK  status: ('A' for Active; 'I' for Inactive)
REMARK       I    between atoms: N_2  and  C_14 
ROOT
HETATM    1  O   UNK     0     102.603  84.219 105.921  0.00  0.00    -0.154 OA
HETATM    2  N   UNK     0     104.131  85.250 107.699  0.00  0.00    -0.283 N 
HETATM    3  N   UNK     0     104.432  85.875 105.233  0.00  0.00    -0.053 NA
HETATM    4  C   UNK     0     103.357  84.448 108.670  0.00  0.00     0.040 A 
HETATM    5  C   UNK     0     105.260  86.171 107.954  0.00  0.00     0.040 A 
HETATM    6  C   UNK     0     103.521  84.368 110.137  0.00  0.00    -0.010 A 
HETATM    7  C   UNK     0     105.894  86.515 109.245  0.00  0.00    -0.010 A 
HETATM    8  C   UNK     0     104.500  85.070 110.996  0.00  0.00    -0.003 A 
HETATM    9  C   UNK     0     105.555  86.025 110.599  0.00  0.00    -0.003 A 
HETATM   10  C   UNK     0     102.269  83.631 107.951  0.00  0.00     0.044 A 
HETATM   11  C   UNK     0     105.760  86.792 106.637  0.00  0.00     0.044 A 
HETATM   12  C   UNK     0     102.607  83.465 110.986  0.00  0.00     0.028 A 
HETATM   13  C   UNK     0     107.071  87.506 109.307  0.00  0.00     0.028 A 
HETATM   14  C   UNK     0     103.722  85.114 106.284  0.00  0.00     0.271 C 
HETATM   15  C   UNK     0     101.337  82.718 108.770  0.00  0.00     0.007 A 
HETATM   16  C   UNK     0     106.936  87.786 106.664  0.00  0.00     0.007 A 
HETATM   17  C   UNK     0     101.508  82.635 110.299  0.00  0.00     0.005 A 
HETATM   18  C   UNK     0     107.596  88.145 108.009  0.00  0.00     0.005 A 
ENDROOT
TORSDOF 0
ENDMDL
MODEL 2
REMARK VINA RESULT:      -7.7      0.862      4.989
REMARK  0 active torsions:
REMARK  status: ('A' for Active; 'I' for Inactive)
REMARK       I    between atoms: N_2  and  C_14 
ROOT
HETATM    1  O   UNK     0     104.517  86.008 105.266  0.00  0.00    -0.154 OA
HETATM    2  N   UNK     0     104.172  85.296 107.701  0.00  0.00    -0.283 N 
HETATM    3  N   UNK     0     102.654  84.356 105.865  0.00  0.00    -0.053 NA
HETATM    4  C   UNK     0     105.311  86.187 108.007  0.00  0.00     0.040 A 
HETATM    5  C   UNK     0     103.372  84.469 108.631  0.00  0.00     0.040 A 
HETATM    6  C   UNK     0     105.932  86.473 109.319  0.00  0.00    -0.010 A 
HETATM    7  C   UNK     0     103.515  84.331 110.096  0.00  0.00    -0.010 A 
HETATM    8  C   UNK     0     105.567  85.938 110.648  0.00  0.00    -0.003 A 
HETATM    9  C   UNK     0     104.491  84.984 110.994  0.00  0.00    -0.003 A 
HETATM   10  C   UNK     0     105.839  86.850 106.722  0.00  0.00     0.044 A 
HETATM   11  C   UNK     0     102.282  83.697 107.866  0.00  0.00     0.044 A 
HETATM   12  C   UNK     0     107.123  87.441 109.435  0.00  0.00     0.028 A 
HETATM   13  C   UNK     0     102.575  83.410 110.897  0.00  0.00     0.028 A 
HETATM   14  C   UNK     0     103.781  85.220 106.277  0.00  0.00     0.271 C 
HETATM   15  C   UNK     0     107.030  87.824 106.802  0.00  0.00     0.007 A 
HETATM   16  C   UNK     0     101.325  82.769 108.637  0.00  0.00     0.007 A 
HETATM   17  C   UNK     0     107.676  88.122 108.169  0.00  0.00     0.005 A 
HETATM   18  C   UNK     0     101.473  82.624 110.164  0.00  0.00     0.005 A 
ENDROOT
TORSDOF 0
ENDMDL
MODEL 3
REMARK VINA RESULT:      -6.8     26.148     27.005
REMARK  0 active torsions:
REMARK  status: ('A' for Active; 'I' for Inactive)
REMARK       I    between atoms: N_2  and  C_14 
ROOT
HETATM    1  O   UNK     0      82.070  89.853 123.092  0.00  0.00    -0.154 OA
HETATM    2  N   UNK     0      81.214  89.869 120.679  0.00  0.00    -0.283 N 
HETATM    3  N   UNK     0      80.799  87.829 122.171  0.00  0.00    -0.053 NA
HETATM    4  C   UNK     0      81.811  91.218 120.593  0.00  0.00     0.040 A 
HETATM    5  C   UNK     0      80.489  89.112 119.635  0.00  0.00     0.040 A 
HETATM    6  C   UNK     0      81.831  92.146 119.441  0.00  0.00    -0.010 A 
HETATM    7  C   UNK     0      80.183  89.521 118.247  0.00  0.00    -0.010 A 
HETATM    8  C   UNK     0      81.258  91.953 118.092  0.00  0.00    -0.003 A 
HETATM    9  C   UNK     0      80.525  90.785 117.560  0.00  0.00    -0.003 A 
HETATM   10  C   UNK     0      82.469  91.604 121.930  0.00  0.00     0.044 A 
HETATM   11  C   UNK     0      80.043  87.740 120.172  0.00  0.00     0.044 A 
HETATM   12  C   UNK     0      82.510  93.524 119.548  0.00  0.00     0.028 A 
HETATM   13  C   UNK     0      79.409  88.583 117.301  0.00  0.00     0.028 A 
HETATM   14  C   UNK     0      81.361  89.184 121.981  0.00  0.00     0.271 C 
HETATM   15  C   UNK     0      83.157  92.976 122.071  0.00  0.00     0.007 A 
HETATM   16  C   UNK     0      79.268  86.779 119.252  0.00  0.00     0.007 A 
HETATM   17  C   UNK     0      83.177  93.942 120.871  0.00  0.00     0.005 A 
HETATM   18  C   UNK     0      78.948  87.204 117.806  0.00  0.00     0.005 A 
ENDROOT
TORSDOF 0
ENDMDL
MODEL 4
REMARK VINA RESULT:      -6.7     26.177     26.714
REMARK  0 active torsions:
REMARK  status: ('A' for Active; 'I' for Inactive)
REMARK       I    between atoms: N_2  and  C_14 
ROOT
HETATM    1  O   UNK     0      80.689  87.709 122.282  0.00  0.00    -0.154 OA
HETATM    2  N   UNK     0      81.142  89.730 120.776  0.00  0.00    -0.283 N 
HETATM    3  N   UNK     0      81.957  89.734 123.204  0.00  0.00    -0.053 NA
HETATM    4  C   UNK     0      80.430  88.969 119.728  0.00  0.00     0.040 A 
HETATM    5  C   UNK     0      81.749  91.076 120.688  0.00  0.00     0.040 A 
HETATM    6  C   UNK     0      80.149  89.365 118.331  0.00  0.00    -0.010 A 
HETATM    7  C   UNK     0      81.794  91.991 119.527  0.00  0.00    -0.010 A 
HETATM    8  C   UNK     0      80.511  90.620 117.638  0.00  0.00    -0.003 A 
HETATM    9  C   UNK     0      81.243  91.788 118.170  0.00  0.00    -0.003 A 
HETATM   10  C   UNK     0      79.966  87.605 120.271  0.00  0.00     0.044 A 
HETATM   11  C   UNK     0      82.387  91.471 122.032  0.00  0.00     0.044 A 
HETATM   12  C   UNK     0      79.386  88.424 117.381  0.00  0.00     0.028 A 
HETATM   13  C   UNK     0      82.480  93.366 119.633  0.00  0.00     0.028 A 
HETATM   14  C   UNK     0      81.263  89.057 122.087  0.00  0.00     0.271 C 
HETATM   15  C   UNK     0      79.200  86.639 119.347  0.00  0.00     0.007 A 
HETATM   16  C   UNK     0      83.081  92.838 122.171  0.00  0.00     0.007 A 
HETATM   17  C   UNK     0      78.908  87.052 117.892  0.00  0.00     0.005 A 
HETATM   18  C   UNK     0      83.128  93.793 120.963  0.00  0.00     0.005 A 
ENDROOT
TORSDOF 0
ENDMDL
MODEL 5
REMARK VINA RESULT:      -6.7     11.885     14.664
REMARK  0 active torsions:
REMARK  status: ('A' for Active; 'I' for Inactive)
REMARK       I    between atoms: N_2  and  C_14 
ROOT
HETATM    1  O   UNK     0      90.833  77.509 106.532  0.00  0.00    -0.154 OA
HETATM    2  N   UNK     0      90.963  80.036 106.925  0.00  0.00    -0.283 N 
HETATM    3  N   UNK     0      92.978  78.786 105.958  0.00  0.00    -0.053 NA
HETATM    4  C   UNK     0      89.575  79.918 107.420  0.00  0.00     0.040 A 
HETATM    5  C   UNK     0      91.807  81.247 106.822  0.00  0.00     0.040 A 
HETATM    6  C   UNK     0      88.686  80.983 107.935  0.00  0.00    -0.010 A 
HETATM    7  C   UNK     0      91.468  82.639 107.191  0.00  0.00    -0.010 A 
HETATM    8  C   UNK     0      88.967  82.427 108.083  0.00  0.00    -0.003 A 
HETATM    9  C   UNK     0      90.205  83.164 107.751  0.00  0.00    -0.003 A 
HETATM   10  C   UNK     0      89.096  78.458 107.343  0.00  0.00     0.044 A 
HETATM   11  C   UNK     0      93.190  80.895 106.247  0.00  0.00     0.044 A 
HETATM   12  C   UNK     0      87.258  80.658 108.410  0.00  0.00     0.028 A 
HETATM   13  C   UNK     0      92.493  83.774 107.008  0.00  0.00     0.028 A 
HETATM   14  C   UNK     0      91.591  78.777 106.472  0.00  0.00     0.271 C 
HETATM   15  C   UNK     0      87.672  78.099 107.810  0.00  0.00     0.007 A 
HETATM   16  C   UNK     0      94.237  82.007 106.052  0.00  0.00     0.007 A 
HETATM   17  C   UNK     0      86.747  79.208 108.347  0.00  0.00     0.005 A 
HETATM   18  C   UNK     0      93.886  83.457 106.435  0.00  0.00     0.005 A 
ENDROOT
TORSDOF 0
ENDMDL
MODEL 6
REMARK VINA RESULT:      -6.7     11.748     15.227
REMARK  0 active torsions:
REMARK  status: ('A' for Active; 'I' for Inactive)
REMARK       I    between atoms: N_2  and  C_14 
ROOT
HETATM    1  O   UNK     0      92.338  78.299 105.347  0.00  0.00    -0.154 OA
HETATM    2  N   UNK     0      90.940  80.062 106.570  0.00  0.00    -0.283 N 
HETATM    3  N   UNK     0      90.006  77.703 106.220  0.00  0.00    -0.053 NA
HETATM    4  C   UNK     0      92.086  80.967 106.343  0.00  0.00     0.040 A 
HETATM    5  C   UNK     0      89.659  80.347 107.252  0.00  0.00     0.040 A 
HETATM    6  C   UNK     0      92.235  82.384 106.742  0.00  0.00    -0.010 A 
HETATM    7  C   UNK     0      89.209  81.611 107.875  0.00  0.00    -0.010 A 
HETATM    8  C   UNK     0      91.274  83.243 107.466  0.00  0.00    -0.003 A 
HETATM    9  C   UNK     0      89.928  82.899 107.970  0.00  0.00    -0.003 A 
HETATM   10  C   UNK     0      93.210  80.238 105.586  0.00  0.00     0.044 A 
HETATM   11  C   UNK     0      88.758  79.100 107.254  0.00  0.00     0.044 A 
HETATM   12  C   UNK     0      93.518  83.167 106.411  0.00  0.00     0.028 A 
HETATM   13  C   UNK     0      87.825  81.712 108.543  0.00  0.00     0.028 A 
HETATM   14  C   UNK     0      91.095  78.688 106.045  0.00  0.00     0.271 C 
HETATM   15  C   UNK     0      94.508  80.992 105.240  0.00  0.00     0.007 A 
HETATM   16  C   UNK     0      87.368  79.167 107.914  0.00  0.00     0.007 A 
HETATM   17  C   UNK     0      94.662  82.467 105.655  0.00  0.00     0.005 A 
HETATM   18  C   UNK     0      86.898  80.483 108.563  0.00  0.00     0.005 A 
ENDROOT
TORSDOF 0
ENDMDL
MODEL 7
REMARK VINA RESULT:      -6.3     26.139     26.776
REMARK  0 active torsions:
REMARK  status: ('A' for Active; 'I' for Inactive)
REMARK       I    between atoms: N_2  and  C_14 
ROOT
HETATM    1  O   UNK     0      80.858  91.482 117.288  0.00  0.00    -0.154 OA
HETATM    2  N   UNK     0      81.063  90.564 119.670  0.00  0.00    -0.283 N 
HETATM    3  N   UNK     0      82.017  92.871 119.100  0.00  0.00    -0.053 NA
HETATM    4  C   UNK     0      80.351  89.375 119.154  0.00  0.00     0.040 A 
HETATM    5  C   UNK     0      81.558  90.821 121.040  0.00  0.00     0.040 A 
HETATM    6  C   UNK     0      79.959  88.148 119.881  0.00  0.00    -0.010 A 
HETATM    7  C   UNK     0      81.463  89.951 122.231  0.00  0.00    -0.010 A 
HETATM    8  C   UNK     0      80.181  87.808 121.303  0.00  0.00    -0.003 A 
HETATM    9  C   UNK     0      80.850  88.610 122.349  0.00  0.00    -0.003 A 
HETATM   10  C   UNK     0      80.027  89.545 117.659  0.00  0.00     0.044 A 
HETATM   11  C   UNK     0      82.241  92.198 121.118  0.00  0.00     0.044 A 
HETATM   12  C   UNK     0      79.216  87.008 119.162  0.00  0.00     0.028 A 
HETATM   13  C   UNK     0      82.046  90.400 123.585  0.00  0.00     0.028 A 
HETATM   14  C   UNK     0      81.312  91.639 118.685  0.00  0.00     0.271 C 
HETATM   15  C   UNK     0      79.285  88.423 116.909  0.00  0.00     0.007 A 
HETATM   16  C   UNK     0      82.835  92.677 122.456  0.00  0.00     0.007 A 
HETATM   17  C   UNK     0      78.876  87.145 117.667  0.00  0.00     0.005 A 
HETATM   18  C   UNK     0      82.736  91.771 123.698  0.00  0.00     0.005 A 
ENDROOT
TORSDOF 0
ENDMDL
MODEL 8
REMARK VINA RESULT:      -6.2     11.001     13.263
REMARK  0 active torsions:
REMARK  status: ('A' for Active; 'I' for Inactive)
REMARK       I    between atoms: N_2  and  C_14 
ROOT
HETATM    1  O   UNK     0      90.371  78.327 105.502  0.00  0.00    -0.154 OA
HETATM    2  N   UNK     0      92.228  80.083 105.657  0.00  0.00    -0.283 N 
HETATM    3  N   UNK     0      92.674  77.846 104.492  0.00  0.00    -0.053 NA
HETATM    4  C   UNK     0      91.235  80.910 106.374  0.00  0.00     0.040 A 
HETATM    5  C   UNK     0      93.632  80.409 105.322  0.00  0.00     0.040 A 
HETATM    6  C   UNK     0      91.398  82.269 106.932  0.00  0.00    -0.010 A 
HETATM    7  C   UNK     0      94.386  81.646 105.621  0.00  0.00    -0.010 A 
HETATM    8  C   UNK     0      92.595  83.137 106.912  0.00  0.00    -0.003 A 
HETATM    9  C   UNK     0      93.924  82.859 106.329  0.00  0.00    -0.003 A 
HETATM   10  C   UNK     0      89.896  80.161 106.496  0.00  0.00     0.044 A 
HETATM   11  C   UNK     0      94.293  79.243 104.566  0.00  0.00     0.044 A 
HETATM   12  C   UNK     0      90.233  82.973 107.652  0.00  0.00     0.028 A 
HETATM   13  C   UNK     0      95.855  81.799 105.185  0.00  0.00     0.028 A 
HETATM   14  C   UNK     0      91.758  78.752 105.217  0.00  0.00     0.271 C 
HETATM   15  C   UNK     0      88.709  80.836 107.210  0.00  0.00     0.007 A 
HETATM   16  C   UNK     0      95.760  79.364 104.116  0.00  0.00     0.007 A 
HETATM   17  C   UNK     0      88.879  82.252 107.792  0.00  0.00     0.005 A 
HETATM   18  C   UNK     0      96.547  80.651 104.427  0.00  0.00     0.005 A 
ENDROOT
TORSDOF 0
ENDMDL
MODEL 9
REMARK VINA RESULT:      -6.1     37.950     38.872
REMARK  0 active torsions:
REMARK  status: ('A' for Active; 'I' for Inactive)
REMARK       I    between atoms: N_2  and  C_14 
ROOT
HETATM    1  O   UNK     0      95.771 122.829 106.602  0.00  0.00    -0.154 OA
HETATM    2  N   UNK     0      94.596 122.362 104.375  0.00  0.00    -0.283 N 
HETATM    3  N   UNK     0      93.214 122.740 106.498  0.00  0.00    -0.053 NA
HETATM    4  C   UNK     0      95.956 122.286 103.801  0.00  0.00     0.040 A 
HETATM    5  C   UNK     0      93.295 122.193 103.692  0.00  0.00     0.040 A 
HETATM    6  C   UNK     0      96.352 122.022 102.400  0.00  0.00    -0.010 A 
HETATM    7  C   UNK     0      93.035 121.907 102.265  0.00  0.00    -0.010 A 
HETATM    8  C   UNK     0      95.486 121.769 101.229  0.00  0.00    -0.003 A 
HETATM    9  C   UNK     0      94.010 121.718 101.169  0.00  0.00    -0.003 A 
HETATM   10  C   UNK     0      97.017 122.527 104.889  0.00  0.00     0.044 A 
HETATM   11  C   UNK     0      92.135 122.358 104.690  0.00  0.00     0.044 A 
HETATM   12  C   UNK     0      97.836 121.982 101.993  0.00  0.00     0.028 A 
HETATM   13  C   UNK     0      91.594 121.765 101.738  0.00  0.00     0.028 A 
HETATM   14  C   UNK     0      94.527 122.644 105.825  0.00  0.00     0.271 C 
HETATM   15  C   UNK     0      98.512 122.494 104.516  0.00  0.00     0.007 A 
HETATM   16  C   UNK     0      90.683 122.222 104.196  0.00  0.00     0.007 A 
HETATM   17  C   UNK     0      98.923 122.219 103.058  0.00  0.00     0.005 A 
HETATM   18  C   UNK     0      90.411 121.924 102.710  0.00  0.00     0.005 A 
ENDROOT
TORSDOF 0
ENDMDL
MODEL 10
REMARK VINA RESULT:      -5.9     23.092     24.216
REMARK  0 active torsions:
REMARK  status: ('A' for Active; 'I' for Inactive)
REMARK       I    between atoms: N_2  and  C_14 
ROOT
HETATM    1  O   UNK     0      84.378  89.670  93.768  0.00  0.00    -0.154 OA
HETATM    2  N   UNK     0      84.174  87.869  95.577  0.00  0.00    -0.283 N 
HETATM    3  N   UNK     0      85.348  87.334  93.364  0.00  0.00    -0.053 NA
HETATM    4  C   UNK     0      83.471  88.900  96.369  0.00  0.00     0.040 A 
HETATM    5  C   UNK     0      84.480  86.470  95.948  0.00  0.00     0.040 A 
HETATM    6  C   UNK     0      82.899  88.788  97.728  0.00  0.00    -0.010 A 
HETATM    7  C   UNK     0      84.157  85.759  97.204  0.00  0.00    -0.010 A 
HETATM    8  C   UNK     0      82.889  87.617  98.630  0.00  0.00    -0.003 A 
HETATM    9  C   UNK     0      83.449  86.269  98.397  0.00  0.00    -0.003 A 
HETATM   10  C   UNK     0      83.380  90.219  95.579  0.00  0.00     0.044 A 
HETATM   11  C   UNK     0      85.232  85.760  94.808  0.00  0.00     0.044 A 
HETATM   12  C   UNK     0      82.197  89.987  98.390  0.00  0.00     0.028 A 
HETATM   13  C   UNK     0      84.564  84.287  97.404  0.00  0.00     0.028 A 
HETATM   14  C   UNK     0      84.634  88.291  94.236  0.00  0.00     0.271 C 
HETATM   15  C   UNK     0      82.684  91.438  96.213  0.00  0.00     0.007 A 
HETATM   16  C   UNK     0      85.653  84.288  94.976  0.00  0.00     0.007 A 
HETATM   17  C   UNK     0      82.088  91.321  97.629  0.00  0.00     0.005 A 
HETATM   18  C   UNK     0      85.317  83.546  96.283  0.00  0.00     0.005 A 
ENDROOT
TORSDOF 0
ENDMDL
