MODEL 1
REMARK VINA RESULT:      -6.4      0.000      0.000
REMARK  9 active torsions:
REMARK  status: ('A' for Active; 'I' for Inactive)
REMARK    1  A    between atoms: C_3  and  C_21 
REMARK    2  A    between atoms: C_4  and  C_14 
REMARK    3  A    between atoms: C_7  and  N_9 
REMARK       I    between atoms: N_9  and  C_10 
REMARK    4  A    between atoms: C_10  and  C_13 
REMARK    5  A    between atoms: C_13  and  C_15 
REMARK    6  A    between atoms: C_13  and  N_20 
REMARK    7  A    between atoms: C_14  and  S_24 
REMARK    8  A    between atoms: N_20  and  O_35 
REMARK    9  A    between atoms: S_24  and  C_25 
ROOT
HETATM    1  C   UNK     0     134.041 106.273  84.255  0.00  0.00     0.308 A 
HETATM    2  N   UNK     0     133.278 105.479  85.219  0.00  0.00    -0.297 N 
HETATM    3  C   UNK     0     133.982 104.251  85.933  0.00  0.00     0.121 A 
HETATM    4  C   UNK     0     135.426 103.903  85.620  0.00  0.00    -0.002 A 
HETATM    5  C   UNK     0     136.189 104.696  84.656  0.00  0.00     0.065 A 
HETATM    6  S   UNK     0     135.547 105.879  83.954  0.00  0.00    -0.194 SA
HETATM    7  C   UNK     0     132.813 107.174  84.025  0.00  0.00     0.125 A 
HETATM    8  C   UNK     0     132.050 106.381  84.989  0.00  0.00     0.211 A 
HETATM    9  O   UNK     0     130.606 106.729  85.302  0.00  0.00    -0.170 OA
ENDROOT
BRANCH   7  10
HETATM   10  N   UNK     0     132.171 108.357  83.323  0.00  0.00    -0.217 NA
HETATM   11  C   UNK     0     132.243 108.444  81.808  0.00  0.00     0.234 C 
HETATM   12  O   UNK     0     132.921 107.403  81.037  0.00  0.00    -0.167 OA
BRANCH  11  13
HETATM   13  C   UNK     0     131.601 109.628  81.106  0.00  0.00     0.165 C 
BRANCH  13  14
HETATM   14  C   UNK     0     132.455 110.918  80.761  0.00  0.00     0.091 A 
HETATM   15  C   UNK     0     133.977 110.711  80.866  0.00  0.00     0.108 A 
HETATM   16  S   UNK     0     134.623 112.060  80.498  0.00  0.00    -0.072 SA
HETATM   17  C   UNK     0     133.485 113.143  80.152  0.00  0.00     0.456 A 
HETATM   18  N   UNK     0     132.130 112.429  80.316  0.00  0.00    -0.229 NA
HETATM   19  N   UNK     0     133.713 114.608  79.738  0.00  0.00     0.656 N 
ENDBRANCH  13  14
BRANCH  13  20
HETATM   20  N   UNK     0     130.036 109.590  80.699  0.00  0.00    -0.126 NA
BRANCH  20  21
HETATM   21  O   UNK     0     129.502 108.505  79.744  0.00  0.00    -0.234 OA
HETATM   22  C   UNK     0     128.289 108.788  78.839  0.00  0.00     0.211 C 
ENDBRANCH  20  21
ENDBRANCH  13  20
ENDBRANCH  11  13
ENDBRANCH   7  10
BRANCH   3  23
HETATM   23  C   UNK     0     133.179 103.416  86.948  0.00  0.00     0.227 C 
HETATM   24  O   UNK     0     132.868 103.910  88.393  0.00  0.00    -0.643 OA
HETATM   25  O   UNK     0     132.639 101.989  86.515  0.00  0.00    -0.643 OA
ENDBRANCH   3  23
BRANCH   4  26
HETATM   26  C   UNK     0     136.028 102.677  86.373  0.00  0.00     0.089 C 
BRANCH  26  27
HETATM   27  S   UNK     0     137.067 102.977  87.440  0.00  0.00    -0.071 SA
BRANCH  27  28
HETATM   28  C   UNK     0     136.742 102.676  88.892  0.00  0.00     0.190 A 
HETATM   29  N   UNK     0     135.640 103.464  89.625  0.00  0.00    -0.192 NA
HETATM   30  C   UNK     0     135.314 103.163  91.078  0.00  0.00     0.260 A 
HETATM   31  C   UNK     0     136.104 102.033  91.861  0.00  0.00     0.274 A 
HETATM   32  O   UNK     0     134.212 103.950  91.810  0.00  0.00    -0.165 OA
HETATM   33  N   UNK     0     137.206 101.245  91.129  0.00  0.00    -0.136 NA
HETATM   34  O   UNK     0     135.779 101.732  93.314  0.00  0.00    -0.164 OA
HETATM   35  N   UNK     0     137.518 101.587  89.612  0.00  0.00    -0.225 N 
HETATM   36  C   UNK     0     138.620 100.800  88.880  0.00  0.00     0.156 C 
ENDBRANCH  27  28
ENDBRANCH  26  27
ENDBRANCH   4  26
TORSDOF 9
ENDMDL
MODEL 2
REMARK VINA RESULT:      -6.3     64.499     66.621
REMARK  9 active torsions:
REMARK  status: ('A' for Active; 'I' for Inactive)
REMARK    1  A    between atoms: C_3  and  C_21 
REMARK    2  A    between atoms: C_4  and  C_14 
REMARK    3  A    between atoms: C_7  and  N_9 
REMARK       I    between atoms: N_9  and  C_10 
REMARK    4  A    between atoms: C_10  and  C_13 
REMARK    5  A    between atoms: C_13  and  C_15 
REMARK    6  A    between atoms: C_13  and  N_20 
REMARK    7  A    between atoms: C_14  and  S_24 
REMARK    8  A    between atoms: N_20  and  O_35 
REMARK    9  A    between atoms: S_24  and  C_25 
ROOT
HETATM    1  C   UNK     0      81.656  88.427 121.708  0.00  0.00     0.308 A 
HETATM    2  N   UNK     0      81.492  89.653 120.927  0.00  0.00    -0.297 N 
HETATM    3  C   UNK     0      80.994  89.549 119.426  0.00  0.00     0.121 A 
HETATM    4  C   UNK     0      80.691  88.196 118.806  0.00  0.00    -0.002 A 
HETATM    5  C   UNK     0      80.856  86.969 119.587  0.00  0.00     0.065 A 
HETATM    6  S   UNK     0      81.331  87.032 121.028  0.00  0.00    -0.194 SA
HETATM    7  C   UNK     0      82.113  89.260 122.920  0.00  0.00     0.125 A 
HETATM    8  C   UNK     0      81.949  90.486 122.139  0.00  0.00     0.211 A 
HETATM    9  O   UNK     0      82.252  91.839 122.758  0.00  0.00    -0.170 OA
ENDROOT
BRANCH   7  10
HETATM   10  N   UNK     0      82.589  89.322 124.361  0.00  0.00    -0.217 NA
HETATM   11  C   UNK     0      83.907  88.665 124.732  0.00  0.00     0.234 C 
HETATM   12  O   UNK     0      84.707  87.982 123.716  0.00  0.00    -0.167 OA
BRANCH  11  13
HETATM   13  C   UNK     0      84.382  88.728 126.173  0.00  0.00     0.165 C 
BRANCH  13  14
HETATM   14  C   UNK     0      85.379  89.867 126.643  0.00  0.00     0.091 A 
HETATM   15  C   UNK     0      85.864  90.785 125.505  0.00  0.00     0.108 A 
HETATM   16  S   UNK     0      86.811  91.812 126.154  0.00  0.00    -0.072 SA
HETATM   17  C   UNK     0      86.927  91.539 127.734  0.00  0.00     0.456 A 
HETATM   18  N   UNK     0      86.033  90.323 128.039  0.00  0.00    -0.229 NA
HETATM   19  N   UNK     0      87.771  92.340 128.741  0.00  0.00     0.656 N 
ENDBRANCH  13  14
BRANCH  13  20
HETATM   20  N   UNK     0      83.878  87.633 127.251  0.00  0.00    -0.126 NA
BRANCH  20  21
HETATM   21  O   UNK     0      84.864  87.024 128.267  0.00  0.00    -0.234 OA
HETATM   22  C   UNK     0      86.168  86.360 127.788  0.00  0.00     0.211 C 
ENDBRANCH  20  21
ENDBRANCH  13  20
ENDBRANCH  11  13
ENDBRANCH   7  10
BRANCH   3  23
HETATM   23  C   UNK     0      80.821  90.840 118.604  0.00  0.00     0.227 C 
HETATM   24  O   UNK     0      81.960  91.445 117.727  0.00  0.00    -0.643 OA
HETATM   25  O   UNK     0      79.428  91.596 118.642  0.00  0.00    -0.643 OA
ENDBRANCH   3  23
BRANCH   4  26
HETATM   26  C   UNK     0      80.207  88.198 117.324  0.00  0.00     0.089 C 
BRANCH  26  27
HETATM   27  S   UNK     0      79.562  86.920 116.817  0.00  0.00    -0.071 SA
BRANCH  27  28
HETATM   28  C   UNK     0      78.394  87.017 115.851  0.00  0.00     0.190 A 
HETATM   29  N   UNK     0      77.534  88.293 115.790  0.00  0.00    -0.192 NA
HETATM   30  C   UNK     0      76.367  88.389 114.824  0.00  0.00     0.260 A 
HETATM   31  C   UNK     0      76.016  87.178 113.863  0.00  0.00     0.274 A 
HETATM   32  O   UNK     0      75.507  89.666 114.763  0.00  0.00    -0.165 OA
HETATM   33  N   UNK     0      76.875  85.902 113.924  0.00  0.00    -0.136 NA
HETATM   34  O   UNK     0      74.848  87.274 112.897  0.00  0.00    -0.164 OA
HETATM   35  N   UNK     0      78.086  85.837 114.945  0.00  0.00    -0.225 N 
HETATM   36  C   UNK     0      78.946  84.561 115.006  0.00  0.00     0.156 C 
ENDBRANCH  27  28
ENDBRANCH  26  27
ENDBRANCH   4  26
TORSDOF 9
ENDMDL
MODEL 3
REMARK VINA RESULT:      -6.3     62.507     64.014
REMARK  9 active torsions:
REMARK  status: ('A' for Active; 'I' for Inactive)
REMARK    1  A    between atoms: C_3  and  C_21 
REMARK    2  A    between atoms: C_4  and  C_14 
REMARK    3  A    between atoms: C_7  and  N_9 
REMARK       I    between atoms: N_9  and  C_10 
REMARK    4  A    between atoms: C_10  and  C_13 
REMARK    5  A    between atoms: C_13  and  C_15 
REMARK    6  A    between atoms: C_13  and  N_20 
REMARK    7  A    between atoms: C_14  and  S_24 
REMARK    8  A    between atoms: N_20  and  O_35 
REMARK    9  A    between atoms: S_24  and  C_25 
ROOT
HETATM    1  C   UNK     0      80.064 114.393 119.135  0.00  0.00     0.308 A 
HETATM    2  N   UNK     0      80.257 115.720 119.720  0.00  0.00    -0.297 N 
HETATM    3  C   UNK     0      80.469 115.848 121.286  0.00  0.00     0.121 A 
HETATM    4  C   UNK     0      80.471 114.611 122.166  0.00  0.00    -0.002 A 
HETATM    5  C   UNK     0      80.279 113.284 121.581  0.00  0.00     0.065 A 
HETATM    6  S   UNK     0      80.073 113.124 120.085  0.00  0.00    -0.194 SA
HETATM    7  C   UNK     0      79.942 115.027 117.736  0.00  0.00     0.125 A 
HETATM    8  C   UNK     0      80.134 116.354 118.321  0.00  0.00     0.211 A 
HETATM    9  O   UNK     0      80.132 117.592 117.441  0.00  0.00    -0.170 OA
ENDROOT
BRANCH   7  10
HETATM   10  N   UNK     0      79.736 114.868 116.240  0.00  0.00    -0.217 NA
HETATM   11  C   UNK     0      78.433 114.275 115.733  0.00  0.00     0.234 C 
HETATM   12  O   UNK     0      77.390 113.864 116.673  0.00  0.00    -0.167 OA
BRANCH  11  13
HETATM   13  C   UNK     0      78.228 114.116 114.237  0.00  0.00     0.165 C 
BRANCH  13  14
HETATM   14  C   UNK     0      78.401 112.698 113.548  0.00  0.00     0.091 A 
HETATM   15  C   UNK     0      77.356 112.398 112.457  0.00  0.00     0.108 A 
HETATM   16  S   UNK     0      77.688 110.995 111.916  0.00  0.00    -0.072 SA
HETATM   17  C   UNK     0      78.969 110.395 112.680  0.00  0.00     0.456 A 
HETATM   18  N   UNK     0      79.414 111.460 113.701  0.00  0.00    -0.229 NA
HETATM   19  N   UNK     0      79.620 109.022 112.436  0.00  0.00     0.656 N 
ENDBRANCH  13  14
BRANCH  13  20
HETATM   20  N   UNK     0      77.829 115.389 113.324  0.00  0.00    -0.126 NA
BRANCH  20  21
HETATM   21  O   UNK     0      78.569 115.664 112.000  0.00  0.00    -0.234 OA
HETATM   22  C   UNK     0      79.043 117.087 111.651  0.00  0.00     0.211 C 
ENDBRANCH  20  21
ENDBRANCH  13  20
ENDBRANCH  11  13
ENDBRANCH   7  10
BRANCH   3  23
HETATM   23  C   UNK     0      80.671 117.245 121.901  0.00  0.00     0.227 C 
HETATM   24  O   UNK     0      82.080 117.849 122.185  0.00  0.00    -0.643 OA
HETATM   25  O   UNK     0      79.399 118.117 122.268  0.00  0.00    -0.643 OA
ENDBRANCH   3  23
BRANCH   4  26
HETATM   26  C   UNK     0      80.687 114.840 123.693  0.00  0.00     0.089 C 
BRANCH  26  27
HETATM   27  S   UNK     0      80.845 113.598 124.552  0.00  0.00    -0.071 SA
BRANCH  27  28
HETATM   28  C   UNK     0      82.237 113.043 124.799  0.00  0.00     0.190 A 
HETATM   29  N   UNK     0      83.242 112.914 123.640  0.00  0.00    -0.192 NA
HETATM   30  C   UNK     0      84.634 112.359 123.887  0.00  0.00     0.260 A 
HETATM   31  C   UNK     0      85.073 111.905 125.341  0.00  0.00     0.274 A 
HETATM   32  O   UNK     0      85.640 112.230 122.728  0.00  0.00    -0.165 OA
HETATM   33  N   UNK     0      84.067 112.034 126.500  0.00  0.00    -0.136 NA
HETATM   34  O   UNK     0      86.465 111.350 125.588  0.00  0.00    -0.164 OA
HETATM   35  N   UNK     0      82.623 112.618 126.205  0.00  0.00    -0.225 N 
HETATM   36  C   UNK     0      81.617 112.747 127.364  0.00  0.00     0.156 C 
ENDBRANCH  27  28
ENDBRANCH  26  27
ENDBRANCH   4  26
TORSDOF 9
ENDMDL
MODEL 4
REMARK VINA RESULT:      -6.1     61.850     64.497
REMARK  9 active torsions:
REMARK  status: ('A' for Active; 'I' for Inactive)
REMARK    1  A    between atoms: C_3  and  C_21 
REMARK    2  A    between atoms: C_4  and  C_14 
REMARK    3  A    between atoms: C_7  and  N_9 
REMARK       I    between atoms: N_9  and  C_10 
REMARK    4  A    between atoms: C_10  and  C_13 
REMARK    5  A    between atoms: C_13  and  C_15 
REMARK    6  A    between atoms: C_13  and  N_20 
REMARK    7  A    between atoms: C_14  and  S_24 
REMARK    8  A    between atoms: N_20  and  O_35 
REMARK    9  A    between atoms: S_24  and  C_25 
ROOT
HETATM    1  C   UNK     0      85.171 110.109 127.255  0.00  0.00     0.308 A 
HETATM    2  N   UNK     0      85.293 110.628 125.893  0.00  0.00    -0.297 N 
HETATM    3  C   UNK     0      84.164 111.588 125.330  0.00  0.00     0.121 A 
HETATM    4  C   UNK     0      82.973 111.965 126.193  0.00  0.00    -0.002 A 
HETATM    5  C   UNK     0      82.851 111.446 127.556  0.00  0.00     0.065 A 
HETATM    6  S   UNK     0      83.913 110.524 128.127  0.00  0.00    -0.194 SA
HETATM    7  C   UNK     0      86.497 109.345 127.083  0.00  0.00     0.125 A 
HETATM    8  C   UNK     0      86.619 109.863 125.721  0.00  0.00     0.211 A 
HETATM    9  O   UNK     0      87.810 109.487 124.857  0.00  0.00    -0.170 OA
ENDROOT
BRANCH   7  10
HETATM   10  N   UNK     0      87.560 108.423 127.654  0.00  0.00    -0.217 NA
HETATM   11  C   UNK     0      87.457 106.930 127.397  0.00  0.00     0.234 C 
HETATM   12  O   UNK     0      86.349 106.387 126.611  0.00  0.00    -0.167 OA
BRANCH  11  13
HETATM   13  C   UNK     0      88.520 106.008 127.968  0.00  0.00     0.165 C 
BRANCH  13  14
HETATM   14  C   UNK     0      89.430 106.481 129.177  0.00  0.00     0.091 A 
HETATM   15  C   UNK     0      90.895 106.757 128.790  0.00  0.00     0.108 A 
HETATM   16  S   UNK     0      91.606 107.200 130.082  0.00  0.00    -0.072 SA
HETATM   17  C   UNK     0      90.570 107.203 131.312  0.00  0.00     0.456 A 
HETATM   18  N   UNK     0      89.210 106.753 130.747  0.00  0.00    -0.229 NA
HETATM   19  N   UNK     0      90.884 107.582 132.771  0.00  0.00     0.656 N 
ENDBRANCH  13  14
BRANCH  13  20
HETATM   20  N   UNK     0      88.739 104.529 127.352  0.00  0.00    -0.126 NA
BRANCH  20  21
HETATM   21  O   UNK     0      88.289 103.280 128.136  0.00  0.00    -0.234 OA
HETATM   22  C   UNK     0      86.817 103.110 128.555  0.00  0.00     0.211 C 
ENDBRANCH  20  21
ENDBRANCH  13  20
ENDBRANCH  11  13
ENDBRANCH   7  10
BRANCH   3  23
HETATM   23  C   UNK     0      84.292 112.134 123.896  0.00  0.00     0.227 C 
HETATM   24  O   UNK     0      83.203 111.909 122.803  0.00  0.00    -0.643 OA
HETATM   25  O   UNK     0      85.585 112.962 123.500  0.00  0.00    -0.643 OA
ENDBRANCH   3  23
BRANCH   4  26
HETATM   26  C   UNK     0      81.916 112.914 125.551  0.00  0.00     0.089 C 
BRANCH  26  27
HETATM   27  S   UNK     0      82.028 114.389 125.894  0.00  0.00    -0.071 SA
BRANCH  27  28
HETATM   28  C   UNK     0      82.552 115.353 124.844  0.00  0.00     0.190 A 
HETATM   29  N   UNK     0      84.066 115.585 124.682  0.00  0.00    -0.192 NA
HETATM   30  C   UNK     0      84.589 116.549 123.631  0.00  0.00     0.260 A 
HETATM   31  C   UNK     0      83.585 117.332 122.687  0.00  0.00     0.274 A 
HETATM   32  O   UNK     0      86.103 116.780 123.469  0.00  0.00    -0.165 OA
HETATM   33  N   UNK     0      82.071 117.100 122.849  0.00  0.00    -0.136 NA
HETATM   34  O   UNK     0      84.109 118.296 121.636  0.00  0.00    -0.164 OA
HETATM   35  N   UNK     0      81.562 116.086 123.956  0.00  0.00    -0.225 N 
HETATM   36  C   UNK     0      80.048 115.855 124.118  0.00  0.00     0.156 C 
ENDBRANCH  27  28
ENDBRANCH  26  27
ENDBRANCH   4  26
TORSDOF 9
ENDMDL
MODEL 5
REMARK VINA RESULT:      -6.1     61.089     62.750
REMARK  9 active torsions:
REMARK  status: ('A' for Active; 'I' for Inactive)
REMARK    1  A    between atoms: C_3  and  C_21 
REMARK    2  A    between atoms: C_4  and  C_14 
REMARK    3  A    between atoms: C_7  and  N_9 
REMARK       I    between atoms: N_9  and  C_10 
REMARK    4  A    between atoms: C_10  and  C_13 
REMARK    5  A    between atoms: C_13  and  C_15 
REMARK    6  A    between atoms: C_13  and  N_20 
REMARK    7  A    between atoms: C_14  and  S_24 
REMARK    8  A    between atoms: N_20  and  O_35 
REMARK    9  A    between atoms: S_24  and  C_25 
ROOT
HETATM    1  C   UNK     0      86.846 113.357 124.973  0.00  0.00     0.308 A 
HETATM    2  N   UNK     0      86.365 111.991 124.769  0.00  0.00    -0.297 N 
HETATM    3  C   UNK     0      87.216 110.781 125.340  0.00  0.00     0.121 A 
HETATM    4  C   UNK     0      88.513 111.037 126.088  0.00  0.00    -0.002 A 
HETATM    5  C   UNK     0      88.995 112.403 126.291  0.00  0.00     0.065 A 
HETATM    6  S   UNK     0      88.204 113.586 125.758  0.00  0.00    -0.194 SA
HETATM    7  C   UNK     0      85.619 113.902 124.220  0.00  0.00     0.125 A 
HETATM    8  C   UNK     0      85.137 112.536 124.016  0.00  0.00     0.211 A 
HETATM    9  O   UNK     0      83.840 112.280 123.268  0.00  0.00    -0.170 OA
ENDROOT
BRANCH   7  10
HETATM   10  N   UNK     0      84.828 115.084 123.687  0.00  0.00    -0.217 NA
HETATM   11  C   UNK     0      84.497 116.233 124.623  0.00  0.00     0.234 C 
HETATM   12  O   UNK     0      84.933 116.201 126.019  0.00  0.00    -0.167 OA
BRANCH  11  13
HETATM   13  C   UNK     0      83.707 117.415 124.090  0.00  0.00     0.165 C 
BRANCH  13  14
HETATM   14  C   UNK     0      84.428 118.552 123.251  0.00  0.00     0.091 A 
HETATM   15  C   UNK     0      85.036 119.676 124.110  0.00  0.00     0.108 A 
HETATM   16  S   UNK     0      85.681 120.669 123.125  0.00  0.00    -0.072 SA
HETATM   17  C   UNK     0      85.477 120.163 121.613  0.00  0.00     0.456 A 
HETATM   18  N   UNK     0      84.693 118.839 121.692  0.00  0.00    -0.229 NA
HETATM   19  N   UNK     0      85.971 120.868 120.337  0.00  0.00     0.656 N 
ENDBRANCH  13  14
BRANCH  13  20
HETATM   20  N   UNK     0      82.119 117.533 124.370  0.00  0.00    -0.126 NA
BRANCH  20  21
HETATM   21  O   UNK     0      81.424 116.571 125.353  0.00  0.00    -0.234 OA
HETATM   22  C   UNK     0      80.388 117.098 126.363  0.00  0.00     0.211 C 
ENDBRANCH  20  21
ENDBRANCH  13  20
ENDBRANCH  11  13
ENDBRANCH   7  10
BRANCH   3  23
HETATM   23  C   UNK     0      86.709 109.343 125.125  0.00  0.00     0.227 C 
HETATM   24  O   UNK     0      87.405 108.335 124.160  0.00  0.00    -0.643 OA
HETATM   25  O   UNK     0      85.425 108.853 125.915  0.00  0.00    -0.643 OA
ENDBRANCH   3  23
BRANCH   4  26
HETATM   26  C   UNK     0      89.278 109.783 126.610  0.00  0.00     0.089 C 
BRANCH  26  27
HETATM   27  S   UNK     0      88.779 109.173 127.908  0.00  0.00    -0.071 SA
BRANCH  27  28
HETATM   28  C   UNK     0      88.668 107.663 128.020  0.00  0.00     0.190 A 
HETATM   29  N   UNK     0      87.320 106.959 127.780  0.00  0.00    -0.192 NA
HETATM   30  C   UNK     0      87.209 105.448 127.891  0.00  0.00     0.260 A 
HETATM   31  C   UNK     0      88.480 104.573 128.256  0.00  0.00     0.274 A 
HETATM   32  O   UNK     0      85.861 104.744 127.651  0.00  0.00    -0.165 OA
HETATM   33  N   UNK     0      89.829 105.277 128.496  0.00  0.00    -0.136 NA
HETATM   34  O   UNK     0      88.370 103.063 128.368  0.00  0.00    -0.164 OA
HETATM   35  N   UNK     0      89.906 106.856 128.371  0.00  0.00    -0.225 N 
HETATM   36  C   UNK     0      91.255 107.560 128.612  0.00  0.00     0.156 C 
ENDBRANCH  27  28
ENDBRANCH  26  27
ENDBRANCH   4  26
TORSDOF 9
ENDMDL
MODEL 6
REMARK VINA RESULT:      -6.1     17.083     20.950
REMARK  9 active torsions:
REMARK  status: ('A' for Active; 'I' for Inactive)
REMARK    1  A    between atoms: C_3  and  C_21 
REMARK    2  A    between atoms: C_4  and  C_14 
REMARK    3  A    between atoms: C_7  and  N_9 
REMARK       I    between atoms: N_9  and  C_10 
REMARK    4  A    between atoms: C_10  and  C_13 
REMARK    5  A    between atoms: C_13  and  C_15 
REMARK    6  A    between atoms: C_13  and  N_20 
REMARK    7  A    between atoms: C_14  and  S_24 
REMARK    8  A    between atoms: N_20  and  O_35 
REMARK    9  A    between atoms: S_24  and  C_25 
ROOT
HETATM    1  C   UNK     0     127.418 118.076  94.960  0.00  0.00     0.308 A 
HETATM    2  N   UNK     0     126.044 118.487  95.251  0.00  0.00    -0.297 N 
HETATM    3  C   UNK     0     125.009 118.610  94.057  0.00  0.00     0.121 A 
HETATM    4  C   UNK     0     125.436 118.306  92.632  0.00  0.00    -0.002 A 
HETATM    5  C   UNK     0     126.810 117.895  92.341  0.00  0.00     0.065 A 
HETATM    6  S   UNK     0     127.828 117.767  93.461  0.00  0.00    -0.194 SA
HETATM    7  C   UNK     0     127.765 118.180  96.457  0.00  0.00     0.125 A 
HETATM    8  C   UNK     0     126.392 118.591  96.748  0.00  0.00     0.211 A 
HETATM    9  O   UNK     0     125.964 118.895  98.173  0.00  0.00    -0.170 OA
ENDROOT
BRANCH   7  10
HETATM   10  N   UNK     0     128.784 118.051  97.577  0.00  0.00    -0.217 NA
HETATM   11  C   UNK     0     129.148 116.669  98.088  0.00  0.00     0.234 C 
HETATM   12  O   UNK     0     128.526 115.477  97.511  0.00  0.00    -0.167 OA
BRANCH  11  13
HETATM   13  C   UNK     0     130.166 116.540  99.207  0.00  0.00     0.165 C 
BRANCH  13  14
HETATM   14  C   UNK     0     129.804 117.001 100.681  0.00  0.00     0.091 A 
HETATM   15  C   UNK     0     130.162 118.467 100.986  0.00  0.00     0.108 A 
HETATM   16  S   UNK     0     129.739 118.720 102.445  0.00  0.00    -0.072 SA
HETATM   17  C   UNK     0     129.100 117.386 103.076  0.00  0.00     0.456 A 
HETATM   18  N   UNK     0     129.140 116.312 101.973  0.00  0.00    -0.229 NA
HETATM   19  N   UNK     0     128.555 117.220 104.506  0.00  0.00     0.656 N 
ENDBRANCH  13  14
BRANCH  13  20
HETATM   20  N   UNK     0     131.635 115.932  98.914  0.00  0.00    -0.126 NA
BRANCH  20  21
HETATM   21  O   UNK     0     132.879 116.522  99.606  0.00  0.00    -0.234 OA
HETATM   22  C   UNK     0     133.428 117.898  99.185  0.00  0.00     0.211 C 
ENDBRANCH  20  21
ENDBRANCH  13  20
ENDBRANCH  11  13
ENDBRANCH   7  10
BRANCH   3  23
HETATM   23  C   UNK     0     123.563 119.043  94.362  0.00  0.00     0.227 C 
HETATM   24  O   UNK     0     122.408 118.024  94.609  0.00  0.00    -0.643 OA
HETATM   25  O   UNK     0     123.220 120.589  94.432  0.00  0.00    -0.643 OA
ENDBRANCH   3  23
BRANCH   4  26
HETATM   26  C   UNK     0     124.346 118.456  91.527  0.00  0.00     0.089 C 
BRANCH  26  27
HETATM   27  S   UNK     0     124.796 119.041  90.200  0.00  0.00    -0.071 SA
BRANCH  27  28
HETATM   28  C   UNK     0     124.767 120.547  90.010  0.00  0.00     0.190 A 
HETATM   29  N   UNK     0     123.996 121.444  90.997  0.00  0.00    -0.192 NA
HETATM   30  C   UNK     0     123.967 122.950  90.807  0.00  0.00     0.260 A 
HETATM   31  C   UNK     0     124.730 123.622  89.590  0.00  0.00     0.274 A 
HETATM   32  O   UNK     0     123.196 123.847  91.793  0.00  0.00    -0.165 OA
HETATM   33  N   UNK     0     125.501 122.726  88.604  0.00  0.00    -0.136 NA
HETATM   34  O   UNK     0     124.701 125.129  89.400  0.00  0.00    -0.164 OA
HETATM   35  N   UNK     0     125.509 121.157  88.834  0.00  0.00    -0.225 N 
HETATM   36  C   UNK     0     126.281 120.260  87.848  0.00  0.00     0.156 C 
ENDBRANCH  27  28
ENDBRANCH  26  27
ENDBRANCH   4  26
TORSDOF 9
ENDMDL
MODEL 7
REMARK VINA RESULT:      -6.1     62.703     64.772
REMARK  9 active torsions:
REMARK  status: ('A' for Active; 'I' for Inactive)
REMARK    1  A    between atoms: C_3  and  C_21 
REMARK    2  A    between atoms: C_4  and  C_14 
REMARK    3  A    between atoms: C_7  and  N_9 
REMARK       I    between atoms: N_9  and  C_10 
REMARK    4  A    between atoms: C_10  and  C_13 
REMARK    5  A    between atoms: C_13  and  C_15 
REMARK    6  A    between atoms: C_13  and  N_20 
REMARK    7  A    between atoms: C_14  and  S_24 
REMARK    8  A    between atoms: N_20  and  O_35 
REMARK    9  A    between atoms: S_24  and  C_25 
ROOT
HETATM    1  C   UNK     0      74.418 107.390 111.028  0.00  0.00     0.308 A 
HETATM    2  N   UNK     0      75.172 107.344 112.281  0.00  0.00    -0.297 N 
HETATM    3  C   UNK     0      76.753 107.236 112.225  0.00  0.00     0.121 A 
HETATM    4  C   UNK     0      77.474 107.181 110.890  0.00  0.00    -0.002 A 
HETATM    5  C   UNK     0      76.720 107.227 109.637  0.00  0.00     0.065 A 
HETATM    6  S   UNK     0      75.205 107.331 109.653  0.00  0.00    -0.194 SA
HETATM    7  C   UNK     0      73.102 107.483 111.823  0.00  0.00     0.125 A 
HETATM    8  C   UNK     0      73.856 107.437 113.076  0.00  0.00     0.211 A 
HETATM    9  O   UNK     0      73.135 107.492 114.411  0.00  0.00    -0.170 OA
ENDROOT
BRANCH   7  10
HETATM   10  N   UNK     0      71.587 107.587 111.839  0.00  0.00    -0.217 NA
HETATM   11  C   UNK     0      70.775 106.653 110.959  0.00  0.00     0.234 C 
HETATM   12  O   UNK     0      71.442 105.667 110.109  0.00  0.00    -0.167 OA
BRANCH  11  13
HETATM   13  C   UNK     0      69.259 106.756 110.976  0.00  0.00     0.165 C 
BRANCH  13  14
HETATM   14  C   UNK     0      68.375 105.739 110.141  0.00  0.00     0.091 A 
HETATM   15  C   UNK     0      67.488 104.823 111.004  0.00  0.00     0.108 A 
HETATM   16  S   UNK     0      66.717 103.920 110.023  0.00  0.00    -0.072 SA
HETATM   17  C   UNK     0      67.124 104.272 108.508  0.00  0.00     0.456 A 
HETATM   18  N   UNK     0      68.161 105.409 108.582  0.00  0.00    -0.229 NA
HETATM   19  N   UNK     0      66.580 103.600 107.235  0.00  0.00     0.656 N 
ENDBRANCH  13  14
BRANCH  13  20
HETATM   20  N   UNK     0      68.525 107.905 111.845  0.00  0.00    -0.126 NA
BRANCH  20  21
HETATM   21  O   UNK     0      68.236 107.688 113.343  0.00  0.00    -0.234 OA
HETATM   22  C   UNK     0      67.474 108.753 114.154  0.00  0.00     0.211 C 
ENDBRANCH  20  21
ENDBRANCH  13  20
ENDBRANCH  11  13
ENDBRANCH   7  10
BRANCH   3  23
HETATM   23  C   UNK     0      77.546 107.187 113.544  0.00  0.00     0.227 C 
HETATM   24  O   UNK     0      77.788 105.868 114.339  0.00  0.00    -0.643 OA
HETATM   25  O   UNK     0      78.149 108.532 114.130  0.00  0.00    -0.643 OA
ENDBRANCH   3  23
BRANCH   4  26
HETATM   26  C   UNK     0      79.029 107.075 110.939  0.00  0.00     0.089 C 
BRANCH  26  27
HETATM   27  S   UNK     0      79.805 108.371 110.781  0.00  0.00    -0.071 SA
BRANCH  27  28
HETATM   28  C   UNK     0      80.789 108.507 109.632  0.00  0.00     0.190 A 
HETATM   29  N   UNK     0      82.184 107.859 109.719  0.00  0.00    -0.192 NA
HETATM   30  C   UNK     0      83.168 107.995 108.570  0.00  0.00     0.260 A 
HETATM   31  C   UNK     0      82.774 108.804 107.264  0.00  0.00     0.274 A 
HETATM   32  O   UNK     0      84.562 107.347 108.656  0.00  0.00    -0.165 OA
HETATM   33  N   UNK     0      81.379 109.451 107.178  0.00  0.00    -0.136 NA
HETATM   34  O   UNK     0      83.758 108.939 106.116  0.00  0.00    -0.164 OA
HETATM   35  N   UNK     0      80.378 109.289 108.397  0.00  0.00    -0.225 N 
HETATM   36  C   UNK     0      78.983 109.936 108.311  0.00  0.00     0.156 C 
ENDBRANCH  27  28
ENDBRANCH  26  27
ENDBRANCH   4  26
TORSDOF 9
ENDMDL
MODEL 8
REMARK VINA RESULT:      -6.0     17.736     18.944
REMARK  9 active torsions:
REMARK  status: ('A' for Active; 'I' for Inactive)
REMARK    1  A    between atoms: C_3  and  C_21 
REMARK    2  A    between atoms: C_4  and  C_14 
REMARK    3  A    between atoms: C_7  and  N_9 
REMARK       I    between atoms: N_9  and  C_10 
REMARK    4  A    between atoms: C_10  and  C_13 
REMARK    5  A    between atoms: C_13  and  C_15 
REMARK    6  A    between atoms: C_13  and  N_20 
REMARK    7  A    between atoms: C_14  and  S_24 
REMARK    8  A    between atoms: N_20  and  O_35 
REMARK    9  A    between atoms: S_24  and  C_25 
ROOT
HETATM    1  C   UNK     0     126.773 116.808  98.785  0.00  0.00     0.308 A 
HETATM    2  N   UNK     0     128.233 116.897  98.832  0.00  0.00    -0.297 N 
HETATM    3  C   UNK     0     129.014 116.130  99.979  0.00  0.00     0.121 A 
HETATM    4  C   UNK     0     128.258 115.315 101.013  0.00  0.00    -0.002 A 
HETATM    5  C   UNK     0     126.799 115.226 100.966  0.00  0.00     0.065 A 
HETATM    6  S   UNK     0     126.018 115.948  99.882  0.00  0.00    -0.194 SA
HETATM    7  C   UNK     0     126.758 117.713  97.538  0.00  0.00     0.125 A 
HETATM    8  C   UNK     0     128.218 117.802  97.585  0.00  0.00     0.211 A 
HETATM    9  O   UNK     0     128.974 118.617  96.551  0.00  0.00    -0.170 OA
ENDROOT
BRANCH   7  10
HETATM   10  N   UNK     0     125.978 118.435  96.454  0.00  0.00    -0.217 NA
HETATM   11  C   UNK     0     124.467 118.282  96.406  0.00  0.00     0.234 C 
HETATM   12  O   UNK     0     123.774 117.451  97.391  0.00  0.00    -0.167 OA
BRANCH  11  13
HETATM   13  C   UNK     0     123.687 119.004  95.322  0.00  0.00     0.165 C 
BRANCH  13  14
HETATM   14  C   UNK     0     122.699 120.187  95.694  0.00  0.00     0.091 A 
HETATM   15  C   UNK     0     123.382 121.379  96.391  0.00  0.00     0.108 A 
HETATM   16  S   UNK     0     122.272 122.410  96.667  0.00  0.00    -0.072 SA
HETATM   17  C   UNK     0     120.858 121.859  96.134  0.00  0.00     0.456 A 
HETATM   18  N   UNK     0     121.126 120.470  95.526  0.00  0.00    -0.229 NA
HETATM   19  N   UNK     0     119.503 122.585  96.219  0.00  0.00     0.656 N 
ENDBRANCH  13  14
BRANCH  13  20
HETATM   20  N   UNK     0     123.851 118.576  93.771  0.00  0.00    -0.126 NA
BRANCH  20  21
HETATM   21  O   UNK     0     124.887 117.513  93.358  0.00  0.00    -0.234 OA
HETATM   22  C   UNK     0     126.302 117.931  92.917  0.00  0.00     0.211 C 
ENDBRANCH  20  21
ENDBRANCH  13  20
ENDBRANCH  11  13
ENDBRANCH   7  10
BRANCH   3  23
HETATM   23  C   UNK     0     130.550 116.224 100.028  0.00  0.00     0.227 C 
HETATM   24  O   UNK     0     131.308 117.240 100.937  0.00  0.00    -0.643 OA
HETATM   25  O   UNK     0     131.411 115.250  99.121  0.00  0.00    -0.643 OA
ENDBRANCH   3  23
BRANCH   4  26
HETATM   26  C   UNK     0     129.116 114.598 102.100  0.00  0.00     0.089 C 
BRANCH  26  27
HETATM   27  S   UNK     0     129.702 113.248 101.724  0.00  0.00    -0.071 SA
BRANCH  27  28
HETATM   28  C   UNK     0     129.214 112.005 102.446  0.00  0.00     0.190 A 
HETATM   29  N   UNK     0     127.709 111.779 102.683  0.00  0.00    -0.192 NA
HETATM   30  C   UNK     0     127.222 110.536 103.405  0.00  0.00     0.260 A 
HETATM   31  C   UNK     0     128.254 109.451 103.926  0.00  0.00     0.274 A 
HETATM   32  O   UNK     0     125.717 110.310 103.643  0.00  0.00    -0.165 OA
HETATM   33  N   UNK     0     129.759 109.676 103.689  0.00  0.00    -0.136 NA
HETATM   34  O   UNK     0     127.766 108.207 104.648  0.00  0.00    -0.164 OA
HETATM   35  N   UNK     0     130.231 110.986 102.931  0.00  0.00    -0.225 N 
HETATM   36  C   UNK     0     131.736 111.212 102.694  0.00  0.00     0.156 C 
ENDBRANCH  27  28
ENDBRANCH  26  27
ENDBRANCH   4  26
TORSDOF 9
ENDMDL
MODEL 9
REMARK VINA RESULT:      -6.0     71.411     72.936
REMARK  9 active torsions:
REMARK  status: ('A' for Active; 'I' for Inactive)
REMARK    1  A    between atoms: C_3  and  C_21 
REMARK    2  A    between atoms: C_4  and  C_14 
REMARK    3  A    between atoms: C_7  and  N_9 
REMARK       I    between atoms: N_9  and  C_10 
REMARK    4  A    between atoms: C_10  and  C_13 
REMARK    5  A    between atoms: C_13  and  C_15 
REMARK    6  A    between atoms: C_13  and  N_20 
REMARK    7  A    between atoms: C_14  and  S_24 
REMARK    8  A    between atoms: N_20  and  O_35 
REMARK    9  A    between atoms: S_24  and  C_25 
ROOT
HETATM    1  C   UNK     0      68.188 100.893 117.898  0.00  0.00     0.308 A 
HETATM    2  N   UNK     0      68.785  99.562 117.793  0.00  0.00    -0.297 N 
HETATM    3  C   UNK     0      69.421  98.898 119.085  0.00  0.00     0.121 A 
HETATM    4  C   UNK     0      69.410  99.634 120.414  0.00  0.00    -0.002 A 
HETATM    5  C   UNK     0      68.813 100.966 120.519  0.00  0.00     0.065 A 
HETATM    6  S   UNK     0      68.195 101.631 119.302  0.00  0.00    -0.194 SA
HETATM    7  C   UNK     0      67.831 100.851 116.401  0.00  0.00     0.125 A 
HETATM    8  C   UNK     0      68.428  99.520 116.296  0.00  0.00     0.211 A 
HETATM    9  O   UNK     0      68.439  98.784 114.967  0.00  0.00    -0.170 OA
ENDROOT
BRANCH   7  10
HETATM   10  N   UNK     0      67.213 101.517 115.184  0.00  0.00    -0.217 NA
HETATM   11  C   UNK     0      67.889 102.740 114.589  0.00  0.00     0.234 C 
HETATM   12  O   UNK     0      69.117 103.270 115.181  0.00  0.00    -0.167 OA
BRANCH  11  13
HETATM   13  C   UNK     0      67.271 103.406 113.372  0.00  0.00     0.165 C 
BRANCH  13  14
HETATM   14  C   UNK     0      65.877 102.909 112.805  0.00  0.00     0.091 A 
HETATM   15  C   UNK     0      64.667 103.710 113.321  0.00  0.00     0.108 A 
HETATM   16  S   UNK     0      63.423 103.084 112.665  0.00  0.00    -0.072 SA
HETATM   17  C   UNK     0      63.854 101.861 111.714  0.00  0.00     0.456 A 
HETATM   18  N   UNK     0      65.387 101.752 111.801  0.00  0.00    -0.229 NA
HETATM   19  N   UNK     0      62.911 100.975 110.880  0.00  0.00     0.656 N 
ENDBRANCH  13  14
BRANCH  13  20
HETATM   20  N   UNK     0      68.027 104.631 112.636  0.00  0.00    -0.126 NA
BRANCH  20  21
HETATM   21  O   UNK     0      68.011 104.750 111.099  0.00  0.00    -0.234 OA
HETATM   22  C   UNK     0      69.055 105.617 110.371  0.00  0.00     0.211 C 
ENDBRANCH  20  21
ENDBRANCH  13  20
ENDBRANCH  11  13
ENDBRANCH   7  10
BRANCH   3  23
HETATM   23  C   UNK     0      70.049  97.496 118.974  0.00  0.00     0.227 C 
HETATM   24  O   UNK     0      71.491  97.255 118.433  0.00  0.00    -0.643 OA
HETATM   25  O   UNK     0      69.202  96.235 119.428  0.00  0.00    -0.643 OA
ENDBRANCH   3  23
BRANCH   4  26
HETATM   26  C   UNK     0      70.059  98.899 121.625  0.00  0.00     0.089 C 
BRANCH  26  27
HETATM   27  S   UNK     0      71.554  99.087 121.815  0.00  0.00    -0.071 SA
BRANCH  27  28
HETATM   28  C   UNK     0      72.047 100.156 122.775  0.00  0.00     0.190 A 
HETATM   29  N   UNK     0      72.252 101.604 122.292  0.00  0.00    -0.192 NA
HETATM   30  C   UNK     0      72.745 102.673 123.252  0.00  0.00     0.260 A 
HETATM   31  C   UNK     0      73.056 102.314 124.765  0.00  0.00     0.274 A 
HETATM   32  O   UNK     0      72.950 104.121 122.770  0.00  0.00    -0.165 OA
HETATM   33  N   UNK     0      72.851 100.866 125.247  0.00  0.00    -0.136 NA
HETATM   34  O   UNK     0      73.549 103.382 125.725  0.00  0.00    -0.164 OA
HETATM   35  N   UNK     0      72.335  99.777 124.217  0.00  0.00    -0.225 N 
HETATM   36  C   UNK     0      72.129  98.329 124.699  0.00  0.00     0.156 C 
ENDBRANCH  27  28
ENDBRANCH  26  27
ENDBRANCH   4  26
TORSDOF 9
ENDMDL
MODEL 10
REMARK VINA RESULT:      -5.9     62.259     65.218
REMARK  9 active torsions:
REMARK  status: ('A' for Active; 'I' for Inactive)
REMARK    1  A    between atoms: C_3  and  C_21 
REMARK    2  A    between atoms: C_4  and  C_14 
REMARK    3  A    between atoms: C_7  and  N_9 
REMARK       I    between atoms: N_9  and  C_10 
REMARK    4  A    between atoms: C_10  and  C_13 
REMARK    5  A    between atoms: C_13  and  C_15 
REMARK    6  A    between atoms: C_13  and  N_20 
REMARK    7  A    between atoms: C_14  and  S_24 
REMARK    8  A    between atoms: N_20  and  O_35 
REMARK    9  A    between atoms: S_24  and  C_25 
ROOT
HETATM    1  C   UNK     0      88.061 106.559 128.931  0.00  0.00     0.308 A 
HETATM    2  N   UNK     0      87.320 106.782 127.690  0.00  0.00    -0.297 N 
HETATM    3  C   UNK     0      87.657 108.057 126.809  0.00  0.00     0.121 A 
HETATM    4  C   UNK     0      88.734 109.033 127.249  0.00  0.00    -0.002 A 
HETATM    5  C   UNK     0      89.475 108.811 128.490  0.00  0.00     0.065 A 
HETATM    6  S   UNK     0      89.178 107.600 129.358  0.00  0.00    -0.194 SA
HETATM    7  C   UNK     0      87.252 105.273 129.183  0.00  0.00     0.125 A 
HETATM    8  C   UNK     0      86.511 105.495 127.942  0.00  0.00     0.211 A 
HETATM    9  O   UNK     0      85.434 104.519 127.502  0.00  0.00    -0.170 OA
ENDROOT
BRANCH   7  10
HETATM   10  N   UNK     0      86.956 104.063 130.051  0.00  0.00    -0.217 NA
HETATM   11  C   UNK     0      85.844 104.149 131.082  0.00  0.00     0.234 C 
HETATM   12  O   UNK     0      85.069 105.380 131.237  0.00  0.00    -0.167 OA
BRANCH  11  13
HETATM   13  C   UNK     0      85.547 102.938 131.950  0.00  0.00     0.165 C 
BRANCH  13  14
HETATM   14  C   UNK     0      84.444 101.886 131.512  0.00  0.00     0.091 A 
HETATM   15  C   UNK     0      83.661 102.286 130.248  0.00  0.00     0.108 A 
HETATM   16  S   UNK     0      82.652 101.152 129.989  0.00  0.00    -0.072 SA
HETATM   17  C   UNK     0      82.800 100.011 131.113  0.00  0.00     0.456 A 
HETATM   18  N   UNK     0      83.920 100.470 132.065  0.00  0.00    -0.229 NA
HETATM   19  N   UNK     0      81.978  98.713 131.213  0.00  0.00     0.656 N 
ENDBRANCH  13  14
BRANCH  13  20
HETATM   20  N   UNK     0      86.350 102.704 133.333  0.00  0.00    -0.126 NA
BRANCH  20  21
HETATM   21  O   UNK     0      87.722 102.002 133.331  0.00  0.00    -0.234 OA
HETATM   22  C   UNK     0      87.831 100.499 133.013  0.00  0.00     0.211 C 
ENDBRANCH  20  21
ENDBRANCH  13  20
ENDBRANCH  11  13
ENDBRANCH   7  10
BRANCH   3  23
HETATM   23  C   UNK     0      86.877 108.291 125.502  0.00  0.00     0.227 C 
HETATM   24  O   UNK     0      85.464 108.950 125.465  0.00  0.00    -0.643 OA
HETATM   25  O   UNK     0      87.528 107.846 124.127  0.00  0.00    -0.643 OA
ENDBRANCH   3  23
BRANCH   4  26
HETATM   26  C   UNK     0      88.992 110.255 126.315  0.00  0.00     0.089 C 
BRANCH  26  27
HETATM   27  S   UNK     0      88.535 111.610 126.826  0.00  0.00    -0.071 SA
BRANCH  27  28
HETATM   28  C   UNK     0      87.411 112.331 126.102  0.00  0.00     0.190 A 
HETATM   29  N   UNK     0      86.984 111.891 124.689  0.00  0.00    -0.192 NA
HETATM   30  C   UNK     0      85.861 112.611 123.965  0.00  0.00     0.260 A 
HETATM   31  C   UNK     0      85.111 113.828 124.652  0.00  0.00     0.274 A 
HETATM   32  O   UNK     0      85.433 112.171 122.553  0.00  0.00    -0.165 OA
HETATM   33  N   UNK     0      85.539 114.269 126.064  0.00  0.00    -0.136 NA
HETATM   34  O   UNK     0      83.988 114.549 123.927  0.00  0.00    -0.164 OA
HETATM   35  N   UNK     0      86.715 113.493 126.790  0.00  0.00    -0.225 N 
HETATM   36  C   UNK     0      87.143 113.933 128.202  0.00  0.00     0.156 C 
ENDBRANCH  27  28
ENDBRANCH  26  27
ENDBRANCH   4  26
TORSDOF 9
ENDMDL
