REMARK  1 active torsions:
REMARK  status: ('A' for Active; 'I' for Inactive)
REMARK    1  A    between atoms: C_10  and  C_12 
ROOT
HETATM    1  N   UNK     0       3.557   1.540   0.000  0.00  0.00    -0.105 NA
HETATM    2  C   UNK     0       5.867   0.206   0.000  0.00  0.00     0.056 A 
HETATM    3  C   UNK     0       4.534  -0.564   0.000  0.00  0.00     0.009 A 
HETATM    4  C   UNK     0       7.201  -0.564   0.000  0.00  0.00     0.009 A 
HETATM    5  C   UNK     0       4.534  -2.104   0.000  0.00  0.00     0.001 A 
HETATM    6  C   UNK     0       7.201  -2.104   0.000  0.00  0.00     0.001 A 
HETATM    7  C   UNK     0       5.867  -2.874   0.000  0.00  0.00     0.000 A 
HETATM    8  C   UNK     0       6.637   1.540   0.000  0.00  0.00     0.056 A 
HETATM    9  C   UNK     0       5.097   1.540   0.000  0.00  0.00     0.053 A 
ENDROOT
BRANCH   8  10
HETATM   10  C   UNK     0       8.177   1.540   0.000  0.00  0.00     0.208 C 
HETATM   11  O   UNK     0       8.948   2.874   0.000  0.00  0.00    -0.644 OA
HETATM   12  O   UNK     0       8.948   0.206   0.000  0.00  0.00    -0.644 OA
ENDBRANCH   8  10
TORSDOF 1
