MODEL 1
REMARK VINA RESULT:      -4.9      0.000      0.000
REMARK  1 active torsions:
REMARK  status: ('A' for Active; 'I' for Inactive)
REMARK    1  A    between atoms: C_10  and  C_12 
ROOT
HETATM    1  N   UNK     0     103.034  84.332 106.499  0.00  0.00    -0.105 NA
HETATM    2  C   UNK     0     103.458  84.385 109.132  0.00  0.00     0.056 A 
HETATM    3  C   UNK     0     102.272  83.589 108.560  0.00  0.00     0.009 A 
HETATM    4  C   UNK     0     103.704  84.416 110.652  0.00  0.00     0.009 A 
HETATM    5  C   UNK     0     101.330  82.823 109.508  0.00  0.00     0.001 A 
HETATM    6  C   UNK     0     102.762  83.650 111.600  0.00  0.00     0.001 A 
HETATM    7  C   UNK     0     101.575  82.853 111.027  0.00  0.00     0.000 A 
HETATM    8  C   UNK     0     104.688  85.288 108.915  0.00  0.00     0.056 A 
HETATM    9  C   UNK     0     103.861  84.810 107.707  0.00  0.00     0.053 A 
ENDROOT
BRANCH   8  10
HETATM   10  C   UNK     0     105.515  85.765 110.123  0.00  0.00     0.208 C 
HETATM   11  O   UNK     0     106.611  84.858 110.715  0.00  0.00    -0.644 OA
HETATM   12  O   UNK     0     105.247  87.151 110.742  0.00  0.00    -0.644 OA
ENDBRANCH   8  10
TORSDOF 1
ENDMDL
MODEL 2
REMARK VINA RESULT:      -4.8     38.212     39.709
REMARK  1 active torsions:
REMARK  status: ('A' for Active; 'I' for Inactive)
REMARK    1  A    between atoms: C_10  and  C_12 
ROOT
HETATM    1  N   UNK     0     102.400 112.879  79.523  0.00  0.00    -0.105 NA
HETATM    2  C   UNK     0     103.740 113.020  81.825  0.00  0.00     0.056 A 
HETATM    3  C   UNK     0     103.411 111.648  81.209  0.00  0.00     0.009 A 
HETATM    4  C   UNK     0     104.514 113.102  83.154  0.00  0.00     0.009 A 
HETATM    5  C   UNK     0     103.856 110.357  81.922  0.00  0.00     0.001 A 
HETATM    6  C   UNK     0     104.959 111.811  83.867  0.00  0.00     0.001 A 
HETATM    7  C   UNK     0     104.630 110.439  83.251  0.00  0.00     0.000 A 
HETATM    8  C   UNK     0     103.673 114.558  81.769  0.00  0.00     0.056 A 
HETATM    9  C   UNK     0     103.037 113.718  80.646  0.00  0.00     0.053 A 
ENDROOT
BRANCH   8  10
HETATM   10  C   UNK     0     104.310 115.398  82.892  0.00  0.00     0.208 C 
HETATM   11  O   UNK     0     103.540 115.640  84.205  0.00  0.00    -0.644 OA
HETATM   12  O   UNK     0     105.718 115.996  82.704  0.00  0.00    -0.644 OA
ENDBRANCH   8  10
TORSDOF 1
ENDMDL
MODEL 3
REMARK VINA RESULT:      -4.7      1.439      1.725
REMARK  1 active torsions:
REMARK  status: ('A' for Active; 'I' for Inactive)
REMARK    1  A    between atoms: C_10  and  C_12 
ROOT
HETATM    1  N   UNK     0     103.131  84.078 106.358  0.00  0.00    -0.105 NA
HETATM    2  C   UNK     0     104.170  85.066 108.608  0.00  0.00     0.056 A 
HETATM    3  C   UNK     0     103.114  83.948 108.674  0.00  0.00     0.009 A 
HETATM    4  C   UNK     0     104.770  85.637 109.906  0.00  0.00     0.009 A 
HETATM    5  C   UNK     0     102.657  83.401 110.039  0.00  0.00     0.001 A 
HETATM    6  C   UNK     0     104.314  85.089 111.271  0.00  0.00     0.001 A 
HETATM    7  C   UNK     0     103.257  83.971 111.338  0.00  0.00     0.000 A 
HETATM    8  C   UNK     0     105.044  86.028 107.781  0.00  0.00     0.056 A 
HETATM    9  C   UNK     0     104.087  85.053 107.070  0.00  0.00     0.053 A 
ENDROOT
BRANCH   8  10
HETATM   10  C   UNK     0     106.001  87.003 108.492  0.00  0.00     0.208 C 
HETATM   11  O   UNK     0     107.404  86.532 108.918  0.00  0.00    -0.644 OA
HETATM   12  O   UNK     0     105.555  88.450 108.777  0.00  0.00    -0.644 OA
ENDBRANCH   8  10
TORSDOF 1
ENDMDL
MODEL 4
REMARK VINA RESULT:      -4.6     38.403     39.947
REMARK  1 active torsions:
REMARK  status: ('A' for Active; 'I' for Inactive)
REMARK    1  A    between atoms: C_10  and  C_12 
ROOT
HETATM    1  N   UNK     0     104.298 115.400  83.229  0.00  0.00    -0.105 NA
HETATM    2  C   UNK     0     103.670 113.113  82.008  0.00  0.00     0.056 A 
HETATM    3  C   UNK     0     104.500 113.090  83.305  0.00  0.00     0.009 A 
HETATM    4  C   UNK     0     103.307 111.793  81.303  0.00  0.00     0.009 A 
HETATM    5  C   UNK     0     104.967 111.747  83.897  0.00  0.00     0.001 A 
HETATM    6  C   UNK     0     103.774 110.450  81.895  0.00  0.00     0.001 A 
HETATM    7  C   UNK     0     104.604 110.427  83.192  0.00  0.00     0.000 A 
HETATM    8  C   UNK     0     102.921 113.901  80.917  0.00  0.00     0.056 A 
HETATM    9  C   UNK     0     103.610 114.651  82.073  0.00  0.00     0.053 A 
ENDROOT
BRANCH   8  10
HETATM   10  C   UNK     0     102.233 113.152  79.761  0.00  0.00     0.208 C 
HETATM   11  O   UNK     0     100.707 112.937  79.782  0.00  0.00    -0.644 OA
HETATM   12  O   UNK     0     103.069 112.617  78.583  0.00  0.00    -0.644 OA
ENDBRANCH   8  10
TORSDOF 1
ENDMDL
MODEL 5
REMARK VINA RESULT:      -4.5      7.489      8.529
REMARK  1 active torsions:
REMARK  status: ('A' for Active; 'I' for Inactive)
REMARK    1  A    between atoms: C_10  and  C_12 
ROOT
HETATM    1  N   UNK     0      98.728  80.937 101.883  0.00  0.00    -0.105 NA
HETATM    2  C   UNK     0      99.550  83.389 102.538  0.00  0.00     0.056 A 
HETATM    3  C   UNK     0      98.838  82.511 103.583  0.00  0.00     0.009 A 
HETATM    4  C   UNK     0     100.025  84.805 102.916  0.00  0.00     0.009 A 
HETATM    5  C   UNK     0      98.600  83.049 105.007  0.00  0.00     0.001 A 
HETATM    6  C   UNK     0      99.787  85.342 104.339  0.00  0.00     0.001 A 
HETATM    7  C   UNK     0      99.074  84.464 105.385  0.00  0.00     0.000 A 
HETATM    8  C   UNK     0     100.099  83.585 101.112  0.00  0.00     0.056 A 
HETATM    9  C   UNK     0      99.413  82.261 101.498  0.00  0.00     0.053 A 
ENDROOT
BRANCH   8  10
HETATM   10  C   UNK     0     100.784  84.909 100.727  0.00  0.00     0.208 C 
HETATM   11  O   UNK     0     102.260  85.150 101.098  0.00  0.00    -0.644 OA
HETATM   12  O   UNK     0      99.994  85.994  99.969  0.00  0.00    -0.644 OA
ENDBRANCH   8  10
TORSDOF 1
ENDMDL
MODEL 6
REMARK VINA RESULT:      -4.5     33.928     34.757
REMARK  1 active torsions:
REMARK  status: ('A' for Active; 'I' for Inactive)
REMARK    1  A    between atoms: C_10  and  C_12 
ROOT
HETATM    1  N   UNK     0      85.194 107.992 129.463  0.00  0.00    -0.105 NA
HETATM    2  C   UNK     0      85.795 108.551 126.925  0.00  0.00     0.056 A 
HETATM    3  C   UNK     0      86.202 107.196 127.531  0.00  0.00     0.009 A 
HETATM    4  C   UNK     0      86.142 108.875 125.460  0.00  0.00     0.009 A 
HETATM    5  C   UNK     0      86.955 106.163 126.673  0.00  0.00     0.001 A 
HETATM    6  C   UNK     0      86.896 107.842 124.601  0.00  0.00     0.001 A 
HETATM    7  C   UNK     0      87.302 106.486 125.208  0.00  0.00     0.000 A 
HETATM    8  C   UNK     0      85.125 109.931 127.071  0.00  0.00     0.056 A 
HETATM    9  C   UNK     0      85.159 108.961 128.267  0.00  0.00     0.053 A 
ENDROOT
BRANCH   8  10
HETATM   10  C   UNK     0      85.091 110.900 125.875  0.00  0.00     0.208 C 
HETATM   11  O   UNK     0      83.918 110.852 124.877  0.00  0.00    -0.644 OA
HETATM   12  O   UNK     0      86.229 111.919 125.675  0.00  0.00    -0.644 OA
ENDBRANCH   8  10
TORSDOF 1
ENDMDL
MODEL 7
REMARK VINA RESULT:      -4.3     35.835     37.303
REMARK  1 active torsions:
REMARK  status: ('A' for Active; 'I' for Inactive)
REMARK    1  A    between atoms: C_10  and  C_12 
ROOT
HETATM    1  N   UNK     0      92.244 104.312  82.400  0.00  0.00    -0.105 NA
HETATM    2  C   UNK     0      92.863 103.365  79.984  0.00  0.00     0.056 A 
HETATM    3  C   UNK     0      92.995 102.460  81.222  0.00  0.00     0.009 A 
HETATM    4  C   UNK     0      93.220 102.819  78.589  0.00  0.00     0.009 A 
HETATM    5  C   UNK     0      93.484 101.008  81.066  0.00  0.00     0.001 A 
HETATM    6  C   UNK     0      93.709 101.367  78.433  0.00  0.00     0.001 A 
HETATM    7  C   UNK     0      93.842 100.462  79.672  0.00  0.00     0.000 A 
HETATM    8  C   UNK     0      92.503 104.726  79.359  0.00  0.00     0.056 A 
HETATM    9  C   UNK     0      92.374 104.519  80.879  0.00  0.00     0.053 A 
ENDROOT
BRANCH   8  10
HETATM   10  C   UNK     0      92.633 104.933  77.838  0.00  0.00     0.208 C 
HETATM   11  O   UNK     0      91.456 104.582  76.909  0.00  0.00    -0.644 OA
HETATM   12  O   UNK     0      93.941 105.493  77.245  0.00  0.00    -0.644 OA
ENDBRANCH   8  10
TORSDOF 1
ENDMDL
MODEL 8
REMARK VINA RESULT:      -4.3     25.166     26.509
REMARK  1 active torsions:
REMARK  status: ('A' for Active; 'I' for Inactive)
REMARK    1  A    between atoms: C_10  and  C_12 
ROOT
HETATM    1  N   UNK     0      77.584  87.010 101.534  0.00  0.00    -0.105 NA
HETATM    2  C   UNK     0      77.740  87.664 104.116  0.00  0.00     0.056 A 
HETATM    3  C   UNK     0      76.481  88.024 103.306  0.00  0.00     0.009 A 
HETATM    4  C   UNK     0      77.830  88.042 105.606  0.00  0.00     0.009 A 
HETATM    5  C   UNK     0      75.312  88.761 103.985  0.00  0.00     0.001 A 
HETATM    6  C   UNK     0      76.661  88.779 106.286  0.00  0.00     0.001 A 
HETATM    7  C   UNK     0      75.402  89.138 105.475  0.00  0.00     0.000 A 
HETATM    8  C   UNK     0      79.142  87.031 104.191  0.00  0.00     0.056 A 
HETATM    9  C   UNK     0      78.363  87.020 102.863  0.00  0.00     0.053 A 
ENDROOT
BRANCH   8  10
HETATM   10  C   UNK     0      79.921  87.041 105.519  0.00  0.00     0.208 C 
HETATM   11  O   UNK     0      80.810  88.246 105.882  0.00  0.00    -0.644 OA
HETATM   12  O   UNK     0      79.811  85.847 106.487  0.00  0.00    -0.644 OA
ENDBRANCH   8  10
TORSDOF 1
ENDMDL
MODEL 9
REMARK VINA RESULT:      -4.3     12.413     13.695
REMARK  1 active torsions:
REMARK  status: ('A' for Active; 'I' for Inactive)
REMARK    1  A    between atoms: C_10  and  C_12 
ROOT
HETATM    1  N   UNK     0      93.877  83.374 106.447  0.00  0.00    -0.105 NA
HETATM    2  C   UNK     0      91.919  81.672 105.826  0.00  0.00     0.056 A 
HETATM    3  C   UNK     0      93.071  81.914 104.834  0.00  0.00     0.009 A 
HETATM    4  C   UNK     0      90.788  80.689 105.468  0.00  0.00     0.009 A 
HETATM    5  C   UNK     0      93.092  81.174 103.483  0.00  0.00     0.001 A 
HETATM    6  C   UNK     0      90.810  79.949 104.118  0.00  0.00     0.001 A 
HETATM    7  C   UNK     0      91.963  80.192 103.125  0.00  0.00     0.000 A 
HETATM    8  C   UNK     0      91.241  81.958 107.179  0.00  0.00     0.056 A 
HETATM    9  C   UNK     0      92.559  82.666 106.813  0.00  0.00     0.053 A 
ENDROOT
BRANCH   8  10
HETATM   10  C   UNK     0      89.923  81.251 107.546  0.00  0.00     0.208 C 
HETATM   11  O   UNK     0      89.946  79.800 108.065  0.00  0.00    -0.644 OA
HETATM   12  O   UNK     0      88.582  81.993 107.393  0.00  0.00    -0.644 OA
ENDBRANCH   8  10
TORSDOF 1
ENDMDL
MODEL 10
REMARK VINA RESULT:      -4.3      7.359      8.660
REMARK  1 active torsions:
REMARK  status: ('A' for Active; 'I' for Inactive)
REMARK    1  A    between atoms: C_10  and  C_12 
ROOT
HETATM    1  N   UNK     0      99.265  82.054 100.662  0.00  0.00    -0.105 NA
HETATM    2  C   UNK     0      98.919  82.813 103.196  0.00  0.00     0.056 A 
HETATM    3  C   UNK     0      99.689  83.720 102.219  0.00  0.00     0.009 A 
HETATM    4  C   UNK     0      98.718  83.251 104.659  0.00  0.00     0.009 A 
HETATM    5  C   UNK     0     100.260  85.065 102.706  0.00  0.00     0.001 A 
HETATM    6  C   UNK     0      99.289  84.596 105.145  0.00  0.00     0.001 A 
HETATM    7  C   UNK     0     100.060  85.503 104.168  0.00  0.00     0.000 A 
HETATM    8  C   UNK     0      98.144  81.512 103.479  0.00  0.00     0.056 A 
HETATM    9  C   UNK     0      98.705  81.783 102.070  0.00  0.00     0.053 A 
ENDROOT
BRANCH   8  10
HETATM   10  C   UNK     0      97.584  81.241 104.887  0.00  0.00     0.208 C 
HETATM   11  O   UNK     0      98.425  80.460 105.915  0.00  0.00    -0.644 OA
HETATM   12  O   UNK     0      96.181  81.750 105.270  0.00  0.00    -0.644 OA
ENDBRANCH   8  10
TORSDOF 1
ENDMDL
