MODEL 1
REMARK VINA RESULT:      -4.4      0.000      0.000
REMARK  3 active torsions:
REMARK  status: ('A' for Active; 'I' for Inactive)
REMARK    1  A    between atoms: N_1  and  C_2 
REMARK    2  A    between atoms: C_2  and  C_5 
REMARK    3  A    between atoms: C_2  and  C_6 
ROOT
HETATM    1  N   UNK     0     111.103 106.540  77.729  0.00  0.00    -0.311 N 
HETATM    2  C   UNK     0     112.099 105.661  78.506  0.00  0.00     0.171 A 
HETATM    3  C   UNK     0     111.085 106.058  76.266  0.00  0.00     0.108 A 
HETATM    4  C   UNK     0     112.697 104.635  77.525  0.00  0.00     0.075 A 
HETATM    5  O   UNK     0     112.439 105.786  80.004  0.00  0.00    -0.176 OA
HETATM    6  C   UNK     0     112.070 104.881  76.141  0.00  0.00     0.033 A 
ENDROOT
BRANCH   1   7
HETATM    7  C   UNK     0     110.272 107.698  78.311  0.00  0.00     0.077 C 
BRANCH   7   8
HETATM    8  C   UNK     0     110.792 109.144  78.214  0.00  0.00     0.212 C 
HETATM    9  N   UNK     0     111.078 109.769  76.836  0.00  0.00    -0.070 NA
HETATM   10  O   UNK     0     111.025 109.966  79.496  0.00  0.00    -0.174 OA
ENDBRANCH   7   8
BRANCH   7  11
HETATM   11  C   UNK     0     108.920 107.410  78.990  0.00  0.00     0.047 C 
HETATM   12  C   UNK     0     108.541 105.966  79.370  0.00  0.00     0.007 C 
ENDBRANCH   7  11
ENDBRANCH   1   7
TORSDOF 3
ENDMDL
MODEL 2
REMARK VINA RESULT:      -4.2     22.692     23.946
REMARK  3 active torsions:
REMARK  status: ('A' for Active; 'I' for Inactive)
REMARK    1  A    between atoms: N_1  and  C_2 
REMARK    2  A    between atoms: C_2  and  C_5 
REMARK    3  A    between atoms: C_2  and  C_6 
ROOT
HETATM    1  N   UNK     0     124.516 119.073  93.894  0.00  0.00    -0.311 N 
HETATM    2  C   UNK     0     124.275 117.769  94.674  0.00  0.00     0.171 A 
HETATM    3  C   UNK     0     123.940 120.237  94.722  0.00  0.00     0.108 A 
HETATM    4  C   UNK     0     123.550 118.126  95.986  0.00  0.00     0.075 A 
HETATM    5  O   UNK     0     124.686 116.354  94.223  0.00  0.00    -0.176 OA
HETATM    6  C   UNK     0     123.343 119.651  96.015  0.00  0.00     0.033 A 
ENDROOT
BRANCH   1   7
HETATM    7  C   UNK     0     125.211 119.193  92.525  0.00  0.00     0.077 C 
BRANCH   7   8
HETATM    8  C   UNK     0     124.370 119.287  91.239  0.00  0.00     0.212 C 
HETATM    9  N   UNK     0     124.977 118.862  89.889  0.00  0.00    -0.070 NA
HETATM   10  O   UNK     0     122.921 119.804  91.303  0.00  0.00    -0.174 OA
ENDBRANCH   7   8
BRANCH   7  11
HETATM   11  C   UNK     0     126.749 119.220  92.442  0.00  0.00     0.047 C 
HETATM   12  C   UNK     0     127.576 118.104  93.106  0.00  0.00     0.007 C 
ENDBRANCH   7  11
ENDBRANCH   1   7
TORSDOF 3
ENDMDL
MODEL 3
REMARK VINA RESULT:      -4.2     17.165     18.325
REMARK  3 active torsions:
REMARK  status: ('A' for Active; 'I' for Inactive)
REMARK    1  A    between atoms: N_1  and  C_2 
REMARK    2  A    between atoms: C_2  and  C_5 
REMARK    3  A    between atoms: C_2  and  C_6 
ROOT
HETATM    1  N   UNK     0     116.786 123.552  81.161  0.00  0.00    -0.311 N 
HETATM    2  C   UNK     0     116.267 123.905  79.756  0.00  0.00     0.171 A 
HETATM    3  C   UNK     0     115.601 123.637  82.141  0.00  0.00     0.108 A 
HETATM    4  C   UNK     0     114.760 124.208  79.867  0.00  0.00     0.075 A 
HETATM    5  O   UNK     0     117.106 123.948  78.465  0.00  0.00    -0.176 OA
HETATM    6  C   UNK     0     114.349 124.043  81.341  0.00  0.00     0.033 A 
ENDROOT
BRANCH   1   7
HETATM    7  C   UNK     0     118.236 123.180  81.523  0.00  0.00     0.077 C 
BRANCH   7   8
HETATM    8  C   UNK     0     118.544 121.809  82.152  0.00  0.00     0.212 C 
HETATM    9  N   UNK     0     118.511 120.538  81.283  0.00  0.00    -0.070 NA
HETATM   10  O   UNK     0     118.886 121.708  83.650  0.00  0.00    -0.174 OA
ENDBRANCH   7   8
BRANCH   7  11
HETATM   11  C   UNK     0     119.377 124.179  81.257  0.00  0.00     0.047 C 
HETATM   12  C   UNK     0     120.730 124.012  81.974  0.00  0.00     0.007 C 
ENDBRANCH   7  11
ENDBRANCH   1   7
TORSDOF 3
ENDMDL
MODEL 4
REMARK VINA RESULT:      -4.2     31.981     33.141
REMARK  3 active torsions:
REMARK  status: ('A' for Active; 'I' for Inactive)
REMARK    1  A    between atoms: N_1  and  C_2 
REMARK    2  A    between atoms: C_2  and  C_5 
REMARK    3  A    between atoms: C_2  and  C_6 
ROOT
HETATM    1  N   UNK     0     122.277  97.993 106.991  0.00  0.00    -0.311 N 
HETATM    2  C   UNK     0     123.262  98.519 105.933  0.00  0.00     0.171 A 
HETATM    3  C   UNK     0     121.054  97.413 106.257  0.00  0.00     0.108 A 
HETATM    4  C   UNK     0     122.649  98.266 104.543  0.00  0.00     0.075 A 
HETATM    5  O   UNK     0     124.623  99.183 106.214  0.00  0.00    -0.176 OA
HETATM    6  C   UNK     0     121.284  97.582 104.743  0.00  0.00     0.033 A 
ENDROOT
BRANCH   1   7
HETATM    7  C   UNK     0     122.479  98.037 108.518  0.00  0.00     0.077 C 
BRANCH   7   8
HETATM    8  C   UNK     0     123.488  97.088 109.189  0.00  0.00     0.212 C 
HETATM    9  N   UNK     0     123.220  96.561 110.611  0.00  0.00    -0.070 NA
HETATM   10  O   UNK     0     124.765  96.666 108.439  0.00  0.00    -0.174 OA
ENDBRANCH   7   8
BRANCH   7  11
HETATM   11  C   UNK     0     121.670  99.031 109.372  0.00  0.00     0.047 C 
HETATM   12  C   UNK     0     122.399 100.106 110.200  0.00  0.00     0.007 C 
ENDBRANCH   7  11
ENDBRANCH   1   7
TORSDOF 3
ENDMDL
MODEL 5
REMARK VINA RESULT:      -4.1     32.131     33.361
REMARK  3 active torsions:
REMARK  status: ('A' for Active; 'I' for Inactive)
REMARK    1  A    between atoms: N_1  and  C_2 
REMARK    2  A    between atoms: C_2  and  C_5 
REMARK    3  A    between atoms: C_2  and  C_6 
ROOT
HETATM    1  N   UNK     0     112.306 123.353 106.993  0.00  0.00    -0.311 N 
HETATM    2  C   UNK     0     112.644 123.500 108.488  0.00  0.00     0.171 A 
HETATM    3  C   UNK     0     113.630 123.243 106.215  0.00  0.00     0.108 A 
HETATM    4  C   UNK     0     114.177 123.480 108.633  0.00  0.00     0.075 A 
HETATM    5  O   UNK     0     111.627 123.641 109.636  0.00  0.00    -0.176 OA
HETATM    6  C   UNK     0     114.787 123.322 107.229  0.00  0.00     0.033 A 
ENDROOT
BRANCH   1   7
HETATM    7  C   UNK     0     110.892 123.322 106.383  0.00  0.00     0.077 C 
BRANCH   7   8
HETATM    8  C   UNK     0     109.966 124.544 106.524  0.00  0.00     0.212 C 
HETATM    9  N   UNK     0     108.568 124.528 105.878  0.00  0.00    -0.070 NA
HETATM   10  O   UNK     0     110.437 125.781 107.310  0.00  0.00    -0.174 OA
ENDBRANCH   7   8
BRANCH   7  11
HETATM   11  C   UNK     0     110.405 122.069 105.632  0.00  0.00     0.047 C 
HETATM   12  C   UNK     0     110.532 121.991 104.099  0.00  0.00     0.007 C 
ENDBRANCH   7  11
ENDBRANCH   1   7
TORSDOF 3
ENDMDL
MODEL 6
REMARK VINA RESULT:      -4.0     45.778     47.677
REMARK  3 active torsions:
REMARK  status: ('A' for Active; 'I' for Inactive)
REMARK    1  A    between atoms: N_1  and  C_2 
REMARK    2  A    between atoms: C_2  and  C_5 
REMARK    3  A    between atoms: C_2  and  C_6 
ROOT
HETATM    1  N   UNK     0      77.321 107.018 112.049  0.00  0.00    -0.311 N 
HETATM    2  C   UNK     0      76.223 106.338 112.887  0.00  0.00     0.171 A 
HETATM    3  C   UNK     0      76.671 107.554 110.760  0.00  0.00     0.108 A 
HETATM    4  C   UNK     0      74.895 106.454 112.116  0.00  0.00     0.075 A 
HETATM    5  O   UNK     0      76.419 105.661 114.256  0.00  0.00    -0.176 OA
HETATM    6  C   UNK     0      75.172 107.205 110.802  0.00  0.00     0.033 A 
ENDROOT
BRANCH   1   7
HETATM    7  C   UNK     0      78.807 107.141 112.433  0.00  0.00     0.077 C 
BRANCH   7   8
HETATM    8  C   UNK     0      79.867 106.315 111.681  0.00  0.00     0.212 C 
HETATM    9  N   UNK     0      80.588 105.156 112.394  0.00  0.00    -0.070 NA
HETATM   10  O   UNK     0      80.206 106.648 110.216  0.00  0.00    -0.174 OA
ENDBRANCH   7   8
BRANCH   7  11
HETATM   11  C   UNK     0      79.234 108.089 113.568  0.00  0.00     0.047 C 
HETATM   12  C   UNK     0      79.470 109.583 113.277  0.00  0.00     0.007 C 
ENDBRANCH   7  11
ENDBRANCH   1   7
TORSDOF 3
ENDMDL
MODEL 7
REMARK VINA RESULT:      -4.0     29.094     29.891
REMARK  3 active torsions:
REMARK  status: ('A' for Active; 'I' for Inactive)
REMARK    1  A    between atoms: N_1  and  C_2 
REMARK    2  A    between atoms: C_2  and  C_5 
REMARK    3  A    between atoms: C_2  and  C_6 
ROOT
HETATM    1  N   UNK     0     121.452 109.955 106.362  0.00  0.00    -0.311 N 
HETATM    2  C   UNK     0     120.088 109.328 106.703  0.00  0.00     0.171 A 
HETATM    3  C   UNK     0     122.239 110.123 107.675  0.00  0.00     0.108 A 
HETATM    4  C   UNK     0     120.032 109.108 108.226  0.00  0.00     0.075 A 
HETATM    5  O   UNK     0     118.975 108.981 105.696  0.00  0.00    -0.176 OA
HETATM    6  C   UNK     0     121.361 109.599 108.827  0.00  0.00     0.033 A 
ENDROOT
BRANCH   1   7
HETATM    7  C   UNK     0     121.943 110.346 104.956  0.00  0.00     0.077 C 
BRANCH   7   8
HETATM    8  C   UNK     0     120.932 110.783 103.881  0.00  0.00     0.212 C 
HETATM    9  N   UNK     0     120.269 109.730 102.973  0.00  0.00    -0.070 NA
HETATM   10  O   UNK     0     120.583 112.274 103.713  0.00  0.00    -0.174 OA
ENDBRANCH   7   8
BRANCH   7  11
HETATM   11  C   UNK     0     123.447 110.299 104.625  0.00  0.00     0.047 C 
HETATM   12  C   UNK     0     124.335 111.527 104.899  0.00  0.00     0.007 C 
ENDBRANCH   7  11
ENDBRANCH   1   7
TORSDOF 3
ENDMDL
MODEL 8
REMARK VINA RESULT:      -3.9     50.252     51.664
REMARK  3 active torsions:
REMARK  status: ('A' for Active; 'I' for Inactive)
REMARK    1  A    between atoms: N_1  and  C_2 
REMARK    2  A    between atoms: C_2  and  C_5 
REMARK    3  A    between atoms: C_2  and  C_6 
ROOT
HETATM    1  N   UNK     0      99.084 108.168 128.138  0.00  0.00    -0.311 N 
HETATM    2  C   UNK     0      99.257 108.011 126.616  0.00  0.00     0.171 A 
HETATM    3  C   UNK     0      99.358 109.639 128.499  0.00  0.00     0.108 A 
HETATM    4  C   UNK     0      99.639 109.386 126.037  0.00  0.00     0.075 A 
HETATM    5  O   UNK     0      99.080 106.708 125.814  0.00  0.00    -0.176 OA
HETATM    6  C   UNK     0      99.702 110.392 127.200  0.00  0.00     0.033 A 
ENDROOT
BRANCH   1   7
HETATM    7  C   UNK     0      98.702 107.049 129.125  0.00  0.00     0.077 C 
BRANCH   7   8
HETATM    8  C   UNK     0      99.484 105.723 129.125  0.00  0.00     0.212 C 
HETATM    9  N   UNK     0      98.839 104.450 128.545  0.00  0.00    -0.070 NA
HETATM   10  O   UNK     0     100.909 105.668 129.706  0.00  0.00    -0.174 OA
ENDBRANCH   7   8
BRANCH   7  11
HETATM   11  C   UNK     0      97.539 107.258 130.113  0.00  0.00     0.047 C 
HETATM   12  C   UNK     0      96.171 107.745 129.601  0.00  0.00     0.007 C 
ENDBRANCH   7  11
ENDBRANCH   1   7
TORSDOF 3
ENDMDL
MODEL 9
REMARK VINA RESULT:      -3.9     22.304     23.298
REMARK  3 active torsions:
REMARK  status: ('A' for Active; 'I' for Inactive)
REMARK    1  A    between atoms: N_1  and  C_2 
REMARK    2  A    between atoms: C_2  and  C_5 
REMARK    3  A    between atoms: C_2  and  C_6 
ROOT
HETATM    1  N   UNK     0     125.935 118.105  91.554  0.00  0.00    -0.311 N 
HETATM    2  C   UNK     0     127.366 118.169  92.117  0.00  0.00     0.171 A 
HETATM    3  C   UNK     0     126.026 117.718  90.066  0.00  0.00     0.108 A 
HETATM    4  C   UNK     0     128.343 117.822  90.977  0.00  0.00     0.075 A 
HETATM    5  O   UNK     0     127.754 118.520  93.566  0.00  0.00    -0.176 OA
HETATM    6  C   UNK     0     127.514 117.543  89.710  0.00  0.00     0.033 A 
ENDROOT
BRANCH   1   7
HETATM    7  C   UNK     0     124.640 118.379  92.341  0.00  0.00     0.077 C 
BRANCH   7   8
HETATM    8  C   UNK     0     123.933 119.740  92.210  0.00  0.00     0.212 C 
HETATM    9  N   UNK     0     124.236 120.864  93.218  0.00  0.00    -0.070 NA
HETATM   10  O   UNK     0     122.924 119.978  91.071  0.00  0.00    -0.174 OA
ENDBRANCH   7   8
BRANCH   7  11
HETATM   11  C   UNK     0     124.051 117.291  93.258  0.00  0.00     0.047 C 
HETATM   12  C   UNK     0     124.829 116.831  94.506  0.00  0.00     0.007 C 
ENDBRANCH   7  11
ENDBRANCH   1   7
TORSDOF 3
ENDMDL
MODEL 10
REMARK VINA RESULT:      -3.9     22.745     23.965
REMARK  3 active torsions:
REMARK  status: ('A' for Active; 'I' for Inactive)
REMARK    1  A    between atoms: N_1  and  C_2 
REMARK    2  A    between atoms: C_2  and  C_5 
REMARK    3  A    between atoms: C_2  and  C_6 
ROOT
HETATM    1  N   UNK     0     124.265 119.029  93.610  0.00  0.00    -0.311 N 
HETATM    2  C   UNK     0     125.417 118.720  94.583  0.00  0.00     0.171 A 
HETATM    3  C   UNK     0     122.939 118.868  94.376  0.00  0.00     0.108 A 
HETATM    4  C   UNK     0     124.803 118.368  95.952  0.00  0.00     0.075 A 
HETATM    5  O   UNK     0     126.920 118.757  94.248  0.00  0.00    -0.176 OA
HETATM    6  C   UNK     0     123.272 118.460  95.824  0.00  0.00     0.033 A 
ENDROOT
BRANCH   1   7
HETATM    7  C   UNK     0     124.412 119.429  92.130  0.00  0.00     0.077 C 
BRANCH   7   8
HETATM    8  C   UNK     0     124.648 120.902  91.750  0.00  0.00     0.212 C 
HETATM    9  N   UNK     0     125.951 121.607  92.172  0.00  0.00    -0.070 NA
HETATM   10  O   UNK     0     123.581 121.670  90.949  0.00  0.00    -0.174 OA
ENDBRANCH   7   8
BRANCH   7  11
HETATM   11  C   UNK     0     124.324 118.354  91.030  0.00  0.00     0.047 C 
HETATM   12  C   UNK     0     125.582 117.964  90.231  0.00  0.00     0.007 C 
ENDBRANCH   7  11
ENDBRANCH   1   7
TORSDOF 3
ENDMDL
