MODEL 1
REMARK VINA RESULT:      -7.6      0.000      0.000
REMARK  0 active torsions:
REMARK  status: ('A' for Active; 'I' for Inactive)
ROOT
HETATM    1 Cl   UNK     0     101.557  82.622 110.338  0.00  0.00    -0.100 Cl
HETATM    2 Cl   UNK     0     102.173  83.611 108.025  0.00  0.00    -0.158 Cl
HETATM    3  O   UNK     0     107.196  88.157 105.720  0.00  0.00    -0.165 OA
HETATM    4  O   UNK     0     108.059  88.271 108.461  0.00  0.00    -0.165 OA
HETATM    5  N   UNK     0     106.268  86.625 109.401  0.00  0.00    -0.222 NA
HETATM    6  N   UNK     0     105.230  86.488 106.102  0.00  0.00    -0.217 NA
HETATM    7  C   UNK     0     104.175  85.168 108.305  0.00  0.00     0.011 A 
HETATM    8  C   UNK     0     104.244  85.541 106.812  0.00  0.00     0.077 A 
HETATM    9  C   UNK     0     105.076  85.651 109.457  0.00  0.00     0.059 A 
HETATM   10  C   UNK     0     103.186  84.879 105.909  0.00  0.00     0.001 A 
HETATM   11  C   UNK     0     106.391  87.296 106.711  0.00  0.00     0.257 A 
HETATM   12  C   UNK     0     102.974  84.141 108.573  0.00  0.00     0.059 A 
HETATM   13  C   UNK     0     106.853  87.357 108.179  0.00  0.00     0.257 A 
HETATM   14  C   UNK     0     104.837  85.139 110.958  0.00  0.00     0.048 A 
HETATM   15  C   UNK     0     102.707  83.609 110.063  0.00  0.00     0.128 A 
HETATM   16  C   UNK     0     103.645  84.111 111.263  0.00  0.00     0.036 A 
HETATM   17  C   UNK     0     102.151  83.914 106.515  0.00  0.00     0.019 A 
HETATM   18  C   UNK     0     103.164  85.182 104.398  0.00  0.00     0.028 A 
HETATM   19  C   UNK     0     101.093  83.252 105.612  0.00  0.00     0.036 A 
HETATM   20  C   UNK     0     102.107  84.520 103.495  0.00  0.00     0.005 A 
HETATM   21  C   UNK     0     101.072  83.555 104.103  0.00  0.00     0.006 A 
ENDROOT
TORSDOF 0
ENDMDL
MODEL 2
REMARK VINA RESULT:      -7.0      3.773      6.345
REMARK  0 active torsions:
REMARK  status: ('A' for Active; 'I' for Inactive)
ROOT
HETATM    1 Cl   UNK     0     102.868  85.372 104.003  0.00  0.00    -0.100 Cl
HETATM    2 Cl   UNK     0     103.949  85.649 106.340  0.00  0.00    -0.158 Cl
HETATM    3  O   UNK     0     102.927  82.548 112.708  0.00  0.00    -0.165 OA
HETATM    4  O   UNK     0     100.888  81.001 111.398  0.00  0.00    -0.165 OA
HETATM    5  N   UNK     0     101.182  82.069 109.037  0.00  0.00    -0.222 NA
HETATM    6  N   UNK     0     103.637  83.930 110.614  0.00  0.00    -0.217 NA
HETATM    7  C   UNK     0     102.830  84.025 107.960  0.00  0.00     0.011 A 
HETATM    8  C   UNK     0     103.685  84.456 109.167  0.00  0.00     0.077 A 
HETATM    9  C   UNK     0     101.716  82.963 107.902  0.00  0.00     0.059 A 
HETATM   10  C   UNK     0     104.725  85.557 108.890  0.00  0.00     0.001 A 
HETATM   11  C   UNK     0     102.722  82.844 111.211  0.00  0.00     0.257 A 
HETATM   12  C   UNK     0     103.242  84.858 106.653  0.00  0.00     0.059 A 
HETATM   13  C   UNK     0     101.630  82.016 110.509  0.00  0.00     0.257 A 
HETATM   14  C   UNK     0     100.938  82.661 106.533  0.00  0.00     0.048 A 
HETATM   15  C   UNK     0     102.484  84.581 105.267  0.00  0.00     0.128 A 
HETATM   16  C   UNK     0     101.325  83.475 105.207  0.00  0.00     0.036 A 
HETATM   17  C   UNK     0     104.857  86.154 107.477  0.00  0.00     0.019 A 
HETATM   18  C   UNK     0     105.632  86.062 110.028  0.00  0.00     0.028 A 
HETATM   19  C   UNK     0     105.897  87.256 107.201  0.00  0.00     0.036 A 
HETATM   20  C   UNK     0     106.672  87.164 109.752  0.00  0.00     0.005 A 
HETATM   21  C   UNK     0     106.805  87.760 108.338  0.00  0.00     0.006 A 
ENDROOT
TORSDOF 0
ENDMDL
MODEL 3
REMARK VINA RESULT:      -6.8      2.897      4.710
REMARK  0 active torsions:
REMARK  status: ('A' for Active; 'I' for Inactive)
ROOT
HETATM    1 Cl   UNK     0     107.541  84.620 113.832  0.00  0.00    -0.100 Cl
HETATM    2 Cl   UNK     0     105.619  84.246 112.136  0.00  0.00    -0.158 Cl
HETATM    3  O   UNK     0     104.394  86.413 105.426  0.00  0.00    -0.165 OA
HETATM    4  O   UNK     0     106.921  87.773 105.623  0.00  0.00    -0.165 OA
HETATM    5  N   UNK     0     107.460  87.037 108.065  0.00  0.00    -0.222 NA
HETATM    6  N   UNK     0     104.420  85.401 107.829  0.00  0.00    -0.217 NA
HETATM    7  C   UNK     0     106.177  85.487 109.976  0.00  0.00     0.011 A 
HETATM    8  C   UNK     0     104.885  85.056 109.257  0.00  0.00     0.077 A 
HETATM    9  C   UNK     0     107.322  86.369 109.447  0.00  0.00     0.059 A 
HETATM   10  C   UNK     0     103.931  84.163 110.072  0.00  0.00     0.001 A 
HETATM   11  C   UNK     0     105.133  86.261 106.769  0.00  0.00     0.257 A 
HETATM   12  C   UNK     0     106.223  84.880 111.460  0.00  0.00     0.059 A 
HETATM   13  C   UNK     0     106.486  86.990 106.874  0.00  0.00     0.257 A 
HETATM   14  C   UNK     0     108.595  86.704 110.364  0.00  0.00     0.048 A 
HETATM   15  C   UNK     0     107.480  85.195 112.405  0.00  0.00     0.128 A 
HETATM   16  C   UNK     0     108.674  86.113 111.853  0.00  0.00     0.036 A 
HETATM   17  C   UNK     0     104.298  83.758 111.512  0.00  0.00     0.019 A 
HETATM   18  C   UNK     0     102.610  83.675 109.448  0.00  0.00     0.028 A 
HETATM   19  C   UNK     0     103.345  82.865 112.327  0.00  0.00     0.036 A 
HETATM   20  C   UNK     0     101.657  82.782 110.263  0.00  0.00     0.005 A 
HETATM   21  C   UNK     0     102.025  82.377 111.703  0.00  0.00     0.006 A 
ENDROOT
TORSDOF 0
ENDMDL
MODEL 4
REMARK VINA RESULT:      -6.0     37.954     39.202
REMARK  0 active torsions:
REMARK  status: ('A' for Active; 'I' for Inactive)
ROOT
HETATM    1 Cl   UNK     0      97.739 123.992 107.193  0.00  0.00    -0.100 Cl
HETATM    2 Cl   UNK     0      96.464 122.948 105.194  0.00  0.00    -0.158 Cl
HETATM    3  O   UNK     0      89.553 121.798 103.737  0.00  0.00    -0.165 OA
HETATM    4  O   UNK     0      89.026 122.995 106.299  0.00  0.00    -0.165 OA
HETATM    5  N   UNK     0      91.515 123.457 106.924  0.00  0.00    -0.222 NA
HETATM    6  N   UNK     0      92.149 122.017 103.841  0.00  0.00    -0.217 NA
HETATM    7  C   UNK     0      93.961 123.022 105.687  0.00  0.00     0.011 A 
HETATM    8  C   UNK     0      93.560 122.357 104.357  0.00  0.00     0.077 A 
HETATM    9  C   UNK     0      93.051 123.512 106.829  0.00  0.00     0.059 A 
HETATM   10  C   UNK     0      94.722 121.982 103.420  0.00  0.00     0.001 A 
HETATM   11  C   UNK     0      90.791 122.258 104.528  0.00  0.00     0.257 A 
HETATM   12  C   UNK     0      95.555 123.172 105.783  0.00  0.00     0.059 A 
HETATM   13  C   UNK     0      90.509 122.899 105.899  0.00  0.00     0.257 A 
HETATM   14  C   UNK     0      93.673 124.185 108.146  0.00  0.00     0.048 A 
HETATM   15  C   UNK     0      96.210 123.840 107.085  0.00  0.00     0.128 A 
HETATM   16  C   UNK     0      95.263 124.350 108.274  0.00  0.00     0.036 A 
HETATM   17  C   UNK     0      96.175 122.277 103.838  0.00  0.00     0.019 A 
HETATM   18  C   UNK     0      94.433 121.311 102.064  0.00  0.00     0.028 A 
HETATM   19  C   UNK     0      97.338 121.902 102.900  0.00  0.00     0.036 A 
HETATM   20  C   UNK     0      95.595 120.936 101.126  0.00  0.00     0.005 A 
HETATM   21  C   UNK     0      97.048 121.232 101.545  0.00  0.00     0.006 A 
ENDROOT
TORSDOF 0
ENDMDL
MODEL 5
REMARK VINA RESULT:      -5.8      2.588      5.620
REMARK  0 active torsions:
REMARK  status: ('A' for Active; 'I' for Inactive)
ROOT
HETATM    1 Cl   UNK     0      99.090  79.544 107.559  0.00  0.00    -0.100 Cl
HETATM    2 Cl   UNK     0     100.687  81.337 108.530  0.00  0.00    -0.158 Cl
HETATM    3  O   UNK     0     104.774  86.461 105.658  0.00  0.00    -0.165 OA
HETATM    4  O   UNK     0     103.783  85.543 103.120  0.00  0.00    -0.165 OA
HETATM    5  N   UNK     0     102.262  83.648 104.067  0.00  0.00    -0.222 NA
HETATM    6  N   UNK     0     103.455  84.753 107.122  0.00  0.00    -0.217 NA
HETATM    7  C   UNK     0     101.670  82.692 106.604  0.00  0.00     0.011 A 
HETATM    8  C   UNK     0     102.514  83.600 107.518  0.00  0.00     0.077 A 
HETATM    9  C   UNK     0     101.557  82.714 105.069  0.00  0.00     0.059 A 
HETATM   10  C   UNK     0     102.403  83.317 109.028  0.00  0.00     0.001 A 
HETATM   11  C   UNK     0     103.784  85.283 105.713  0.00  0.00     0.257 A 
HETATM   12  C   UNK     0     100.845  81.628 107.475  0.00  0.00     0.059 A 
HETATM   13  C   UNK     0     103.253  84.791 104.354  0.00  0.00     0.257 A 
HETATM   14  C   UNK     0     100.612  81.672 104.298  0.00  0.00     0.048 A 
HETATM   15  C   UNK     0      99.889  80.572 106.737  0.00  0.00     0.128 A 
HETATM   16  C   UNK     0      99.773  80.595 105.138  0.00  0.00     0.036 A 
HETATM   17  C   UNK     0     101.490  82.185 109.535  0.00  0.00     0.019 A 
HETATM   18  C   UNK     0     103.206  84.166 110.032  0.00  0.00     0.028 A 
HETATM   19  C   UNK     0     101.379  81.902 111.044  0.00  0.00     0.036 A 
HETATM   20  C   UNK     0     103.095  83.883 111.541  0.00  0.00     0.005 A 
HETATM   21  C   UNK     0     102.181  82.751 112.047  0.00  0.00     0.006 A 
ENDROOT
TORSDOF 0
ENDMDL
MODEL 6
REMARK VINA RESULT:      -5.7     43.524     45.813
REMARK  0 active torsions:
REMARK  status: ('A' for Active; 'I' for Inactive)
ROOT
HETATM    1 Cl   UNK     0     109.023 126.343  90.091  0.00  0.00    -0.100 Cl
HETATM    2 Cl   UNK     0     111.394 127.384  90.067  0.00  0.00    -0.158 Cl
HETATM    3  O   UNK     0     117.093 126.911  94.370  0.00  0.00    -0.165 OA
HETATM    4  O   UNK     0     115.488 125.131  95.960  0.00  0.00    -0.165 OA
HETATM    5  N   UNK     0     113.359 125.236  94.458  0.00  0.00    -0.222 NA
HETATM    6  N   UNK     0     115.291 127.378  92.544  0.00  0.00    -0.217 NA
HETATM    7  C   UNK     0     112.679 126.546  92.108  0.00  0.00     0.011 A 
HETATM    8  C   UNK     0     113.960 127.331  91.769  0.00  0.00     0.077 A 
HETATM    9  C   UNK     0     112.411 125.615  93.303  0.00  0.00     0.059 A 
HETATM   10  C   UNK     0     113.904 128.182  90.487  0.00  0.00     0.001 A 
HETATM   11  C   UNK     0     115.668 126.650  93.849  0.00  0.00     0.257 A 
HETATM   12  C   UNK     0     111.548 126.813  91.002  0.00  0.00     0.059 A 
HETATM   13  C   UNK     0     114.808 125.697  94.700  0.00  0.00     0.257 A 
HETATM   14  C   UNK     0     110.994 124.884  93.477  0.00  0.00     0.048 A 
HETATM   15  C   UNK     0     110.119 126.098  91.143  0.00  0.00     0.128 A 
HETATM   16  C   UNK     0     109.841 125.127  92.389  0.00  0.00     0.036 A 
HETATM   17  C   UNK     0     112.621 128.209  89.636  0.00  0.00     0.019 A 
HETATM   18  C   UNK     0     115.132 129.007  90.056  0.00  0.00     0.028 A 
HETATM   19  C   UNK     0     112.565 129.060  88.353  0.00  0.00     0.036 A 
HETATM   20  C   UNK     0     115.076 129.858  88.774  0.00  0.00     0.005 A 
HETATM   21  C   UNK     0     113.792 129.884  87.923  0.00  0.00     0.006 A 
ENDROOT
TORSDOF 0
ENDMDL
MODEL 7
REMARK VINA RESULT:      -5.7     23.934     25.528
REMARK  0 active torsions:
REMARK  status: ('A' for Active; 'I' for Inactive)
ROOT
HETATM    1 Cl   UNK     0     128.474  87.733 112.576  0.00  0.00    -0.100 Cl
HETATM    2 Cl   UNK     0     129.464  87.334 110.216  0.00  0.00    -0.158 Cl
HETATM    3  O   UNK     0     128.606  90.485 103.848  0.00  0.00    -0.165 OA
HETATM    4  O   UNK     0     126.767  92.239 105.194  0.00  0.00    -0.165 OA
HETATM    5  N   UNK     0     127.010  91.161 107.556  0.00  0.00    -0.222 NA
HETATM    6  N   UNK     0     129.223  89.051 105.936  0.00  0.00    -0.217 NA
HETATM    7  C   UNK     0     128.476  89.054 108.610  0.00  0.00     0.011 A 
HETATM    8  C   UNK     0     129.253  88.531 107.386  0.00  0.00     0.077 A 
HETATM    9  C   UNK     0     127.478  90.224 108.685  0.00  0.00     0.059 A 
HETATM   10  C   UNK     0     130.182  87.331 107.647  0.00  0.00     0.001 A 
HETATM   11  C   UNK     0     128.409  90.221 105.352  0.00  0.00     0.257 A 
HETATM   12  C   UNK     0     128.834  88.191 109.913  0.00  0.00     0.059 A 
HETATM   13  C   UNK     0     127.424  91.160 106.073  0.00  0.00     0.257 A 
HETATM   14  C   UNK     0     126.768  90.612 110.070  0.00  0.00     0.048 A 
HETATM   15  C   UNK     0     128.142  88.551 111.315  0.00  0.00     0.128 A 
HETATM   16  C   UNK     0     127.103  89.770 111.394  0.00  0.00     0.036 A 
HETATM   17  C   UNK     0     130.288  86.732 109.062  0.00  0.00     0.019 A 
HETATM   18  C   UNK     0     131.005  86.730 106.493  0.00  0.00     0.028 A 
HETATM   19  C   UNK     0     131.217  85.532 109.323  0.00  0.00     0.036 A 
HETATM   20  C   UNK     0     131.935  85.530 106.753  0.00  0.00     0.005 A 
HETATM   21  C   UNK     0     132.040  84.931 108.169  0.00  0.00     0.006 A 
ENDROOT
TORSDOF 0
ENDMDL
MODEL 8
REMARK VINA RESULT:      -5.7      3.925      5.381
REMARK  0 active torsions:
REMARK  status: ('A' for Active; 'I' for Inactive)
ROOT
HETATM    1 Cl   UNK     0     103.975  83.060 110.331  0.00  0.00    -0.100 Cl
HETATM    2 Cl   UNK     0     105.607  84.857 109.427  0.00  0.00    -0.158 Cl
HETATM    3  O   UNK     0     111.608  87.854 111.921  0.00  0.00    -0.165 OA
HETATM    4  O   UNK     0     111.254  86.161 114.219  0.00  0.00    -0.165 OA
HETATM    5  N   UNK     0     109.062  85.009 113.400  0.00  0.00    -0.222 NA
HETATM    6  N   UNK     0     109.488  87.047 110.635  0.00  0.00    -0.217 NA
HETATM    7  C   UNK     0     107.470  85.208 111.135  0.00  0.00     0.011 A 
HETATM    8  C   UNK     0     108.197  86.277 110.298  0.00  0.00     0.077 A 
HETATM    9  C   UNK     0     107.855  84.644 112.515  0.00  0.00     0.059 A 
HETATM   10  C   UNK     0     107.546  86.623 108.946  0.00  0.00     0.001 A 
HETATM   11  C   UNK     0     110.372  86.936 111.892  0.00  0.00     0.257 A 
HETATM   12  C   UNK     0     106.160  84.690 110.370  0.00  0.00     0.059 A 
HETATM   13  C   UNK     0     110.182  86.029 113.122  0.00  0.00     0.257 A 
HETATM   14  C   UNK     0     106.956  83.522 113.226  0.00  0.00     0.048 A 
HETATM   15  C   UNK     0     105.237  83.569 111.052  0.00  0.00     0.128 A 
HETATM   16  C   UNK     0     105.638  82.981 112.489  0.00  0.00     0.036 A 
HETATM   17  C   UNK     0     106.251  85.913 108.510  0.00  0.00     0.019 A 
HETATM   18  C   UNK     0     108.191  87.680 108.029  0.00  0.00     0.028 A 
HETATM   19  C   UNK     0     105.601  86.259 107.157  0.00  0.00     0.036 A 
HETATM   20  C   UNK     0     107.541  88.026 106.677  0.00  0.00     0.005 A 
HETATM   21  C   UNK     0     106.246  87.315 106.241  0.00  0.00     0.006 A 
ENDROOT
TORSDOF 0
ENDMDL
MODEL 9
REMARK VINA RESULT:      -5.5     35.866     37.203
REMARK  0 active torsions:
REMARK  status: ('A' for Active; 'I' for Inactive)
ROOT
HETATM    1 Cl   UNK     0     135.291 100.203 101.020  0.00  0.00    -0.100 Cl
HETATM    2 Cl   UNK     0     135.487 101.225  98.648  0.00  0.00    -0.158 Cl
HETATM    3  O   UNK     0     133.768 107.553  95.784  0.00  0.00    -0.165 OA
HETATM    4  O   UNK     0     132.844 108.261  98.414  0.00  0.00    -0.165 OA
HETATM    5  N   UNK     0     133.434 105.991  99.552  0.00  0.00    -0.222 NA
HETATM    6  N   UNK     0     134.545 105.139  96.387  0.00  0.00    -0.217 NA
HETATM    7  C   UNK     0     134.562 103.603  98.699  0.00  0.00     0.011 A 
HETATM    8  C   UNK     0     134.831 103.865  97.205  0.00  0.00     0.077 A 
HETATM    9  C   UNK     0     133.940 104.548  99.743  0.00  0.00     0.059 A 
HETATM   10  C   UNK     0     135.471 102.701  96.427  0.00  0.00     0.001 A 
HETATM   11  C   UNK     0     133.919 106.464  96.861  0.00  0.00     0.257 A 
HETATM   12  C   UNK     0     135.029 102.123  99.103  0.00  0.00     0.059 A 
HETATM   13  C   UNK     0     133.424 106.843  98.270  0.00  0.00     0.257 A 
HETATM   14  C   UNK     0     133.743 104.079 101.264  0.00  0.00     0.048 A 
HETATM   15  C   UNK     0     134.847 101.621 100.615  0.00  0.00     0.128 A 
HETATM   16  C   UNK     0     134.200 102.606 101.703  0.00  0.00     0.036 A 
HETATM   17  C   UNK     0     135.799 101.380  97.148  0.00  0.00     0.019 A 
HETATM   18  C   UNK     0     135.783 102.857  94.926  0.00  0.00     0.028 A 
HETATM   19  C   UNK     0     136.439 100.216  96.369  0.00  0.00     0.036 A 
HETATM   20  C   UNK     0     136.422 101.692  94.148  0.00  0.00     0.005 A 
HETATM   21  C   UNK     0     136.750 100.372  94.870  0.00  0.00     0.006 A 
ENDROOT
TORSDOF 0
ENDMDL
MODEL 10
REMARK VINA RESULT:      -5.4     35.328     36.815
REMARK  0 active torsions:
REMARK  status: ('A' for Active; 'I' for Inactive)
ROOT
HETATM    1 Cl   UNK     0     116.530 114.951 125.182  0.00  0.00    -0.100 Cl
HETATM    2 Cl   UNK     0     113.948 114.916 125.378  0.00  0.00    -0.158 Cl
HETATM    3  O   UNK     0     108.687 118.980 122.728  0.00  0.00    -0.165 OA
HETATM    4  O   UNK     0     110.777 120.503 121.469  0.00  0.00    -0.165 OA
HETATM    5  N   UNK     0     112.765 119.084 122.383  0.00  0.00    -0.222 NA
HETATM    6  N   UNK     0     110.250 117.252 123.899  0.00  0.00    -0.217 NA
HETATM    7  C   UNK     0     112.994 116.851 124.014  0.00  0.00     0.011 A 
HETATM    8  C   UNK     0     111.528 116.522 124.353  0.00  0.00     0.077 A 
HETATM    9  C   UNK     0     113.544 117.991 123.138  0.00  0.00     0.059 A 
HETATM   10  C   UNK     0     111.311 115.301 125.267  0.00  0.00     0.001 A 
HETATM   11  C   UNK     0     110.123 118.492 122.993  0.00  0.00     0.257 A 
HETATM   12  C   UNK     0     113.983 115.805 124.721  0.00  0.00     0.059 A 
HETATM   13  C   UNK     0     111.242 119.307 122.319  0.00  0.00     0.257 A 
HETATM   14  C   UNK     0     115.122 118.164 122.907  0.00  0.00     0.048 A 
HETATM   15  C   UNK     0     115.567 115.947 124.512  0.00  0.00     0.128 A 
HETATM   16  C   UNK     0     116.140 117.135 123.599  0.00  0.00     0.036 A 
HETATM   17  C   UNK     0     112.521 114.498 125.780  0.00  0.00     0.019 A 
HETATM   18  C   UNK     0     109.883 114.884 125.669  0.00  0.00     0.028 A 
HETATM   19  C   UNK     0     112.304 113.278 126.694  0.00  0.00     0.036 A 
HETATM   20  C   UNK     0     109.666 113.664 126.582  0.00  0.00     0.005 A 
HETATM   21  C   UNK     0     110.877 112.861 127.095  0.00  0.00     0.006 A 
ENDROOT
TORSDOF 0
ENDMDL
