MODEL 1
REMARK VINA RESULT:      -5.6      0.000      0.000
REMARK  1 active torsions:
REMARK  status: ('A' for Active; 'I' for Inactive)
REMARK    1  A    between atoms: C_10  and  C_11 
ROOT
HETATM    1  N   UNK     0     106.007  87.069 105.942  0.00  0.00    -0.348 N 
HETATM    2  C   UNK     0     107.089  87.422 108.168  0.00  0.00     0.021 A 
HETATM    3  C   UNK     0     106.483  87.185 107.097  0.00  0.00     0.083 A 
HETATM    4  C   UNK     0     104.779  85.298 109.515  0.00  0.00     0.004 A 
HETATM    5  C   UNK     0     104.907  85.666 108.323  0.00  0.00     0.019 A 
HETATM    6  C   UNK     0     105.634  85.699 110.732  0.00  0.00     0.002 A 
HETATM    7  C   UNK     0     102.875  84.009 108.569  0.00  0.00     0.000 A 
HETATM    8  C   UNK     0     103.003  84.377 107.377  0.00  0.00     0.002 A 
HETATM    9  C   UNK     0     107.810  87.775 109.131  0.00  0.00     0.004 A 
HETATM   10  C   UNK     0     107.961  88.209 107.730  0.00  0.00     0.024 A 
HETATM   11  C   UNK     0     107.165  87.897 106.323  0.00  0.00     0.100 A 
HETATM   12  C   UNK     0     105.014  86.330 105.744  0.00  0.00     0.090 C 
ENDROOT
TORSDOF 1
ENDMDL
MODEL 2
REMARK VINA RESULT:      -5.6     12.817     15.034
REMARK  1 active torsions:
REMARK  status: ('A' for Active; 'I' for Inactive)
REMARK    1  A    between atoms: C_10  and  C_11 
ROOT
HETATM    1  N   UNK     0      93.378  81.426 105.216  0.00  0.00    -0.348 N 
HETATM    2  C   UNK     0      92.487  83.053 106.894  0.00  0.00     0.021 A 
HETATM    3  C   UNK     0      92.849  82.188 106.060  0.00  0.00     0.083 A 
HETATM    4  C   UNK     0      89.609  81.218 106.995  0.00  0.00     0.004 A 
HETATM    5  C   UNK     0      90.643  81.019 106.315  0.00  0.00     0.019 A 
HETATM    6  C   UNK     0      89.330  82.357 107.993  0.00  0.00     0.002 A 
HETATM    7  C   UNK     0      88.847  79.153 105.838  0.00  0.00     0.000 A 
HETATM    8  C   UNK     0      89.882  78.955 105.158  0.00  0.00     0.002 A 
HETATM    9  C   UNK     0      92.302  83.996 107.697  0.00  0.00     0.004 A 
HETATM   10  C   UNK     0      93.519  83.764 106.898  0.00  0.00     0.024 A 
HETATM   11  C   UNK     0      93.993  82.630 105.804  0.00  0.00     0.100 A 
HETATM   12  C   UNK     0      92.749  80.428 104.791  0.00  0.00     0.090 C 
ENDROOT
TORSDOF 1
ENDMDL
MODEL 3
REMARK VINA RESULT:      -5.5      1.753      3.283
REMARK  1 active torsions:
REMARK  status: ('A' for Active; 'I' for Inactive)
REMARK    1  A    between atoms: C_10  and  C_11 
ROOT
HETATM    1  N   UNK     0     105.878  86.927 110.052  0.00  0.00    -0.348 N 
HETATM    2  C   UNK     0     105.344  86.746 107.616  0.00  0.00     0.021 A 
HETATM    3  C   UNK     0     105.547  86.765 108.853  0.00  0.00     0.083 A 
HETATM    4  C   UNK     0     103.137  84.257 108.389  0.00  0.00     0.004 A 
HETATM    5  C   UNK     0     103.872  84.921 109.157  0.00  0.00     0.019 A 
HETATM    6  C   UNK     0     103.012  84.369 106.858  0.00  0.00     0.002 A 
HETATM    7  C   UNK     0     102.446  83.175 110.519  0.00  0.00     0.000 A 
HETATM    8  C   UNK     0     103.181  83.840 111.287  0.00  0.00     0.002 A 
HETATM    9  C   UNK     0     105.274  86.870 106.371  0.00  0.00     0.004 A 
HETATM   10  C   UNK     0     106.139  87.652 107.273  0.00  0.00     0.024 A 
HETATM   11  C   UNK     0     106.405  87.677 108.897  0.00  0.00     0.100 A 
HETATM   12  C   UNK     0     105.355  86.224 110.948  0.00  0.00     0.090 C 
ENDROOT
TORSDOF 1
ENDMDL
MODEL 4
REMARK VINA RESULT:      -5.4      1.680      5.179
REMARK  1 active torsions:
REMARK  status: ('A' for Active; 'I' for Inactive)
REMARK    1  A    between atoms: C_10  and  C_11 
ROOT
HETATM    1  N   UNK     0     105.187  85.473 110.639  0.00  0.00    -0.348 N 
HETATM    2  C   UNK     0     103.839  84.760 108.657  0.00  0.00     0.021 A 
HETATM    3  C   UNK     0     104.566  85.176 109.590  0.00  0.00     0.083 A 
HETATM    4  C   UNK     0     105.744  86.846 106.738  0.00  0.00     0.004 A 
HETATM    5  C   UNK     0     105.817  86.627 107.970  0.00  0.00     0.019 A 
HETATM    6  C   UNK     0     104.766  86.233 105.719  0.00  0.00     0.002 A 
HETATM    7  C   UNK     0     107.642  88.375 107.229  0.00  0.00     0.000 A 
HETATM    8  C   UNK     0     107.715  88.157 108.461  0.00  0.00     0.002 A 
HETATM    9  C   UNK     0     103.024  84.237 107.862  0.00  0.00     0.004 A 
HETATM   10  C   UNK     0     103.109  83.979 109.311  0.00  0.00     0.024 A 
HETATM   11  C   UNK     0     104.063  84.525 110.536  0.00  0.00     0.100 A 
HETATM   12  C   UNK     0     106.130  86.298 110.597  0.00  0.00     0.090 C 
ENDROOT
TORSDOF 1
ENDMDL
MODEL 5
REMARK VINA RESULT:      -5.4      2.905      4.539
REMARK  1 active torsions:
REMARK  status: ('A' for Active; 'I' for Inactive)
REMARK    1  A    between atoms: C_10  and  C_11 
ROOT
HETATM    1  N   UNK     0     101.856  83.399 107.505  0.00  0.00    -0.348 N 
HETATM    2  C   UNK     0     103.801  84.887 108.009  0.00  0.00     0.021 A 
HETATM    3  C   UNK     0     102.821  84.121 107.852  0.00  0.00     0.083 A 
HETATM    4  C   UNK     0     103.448  84.061 111.304  0.00  0.00     0.004 A 
HETATM    5  C   UNK     0     102.772  83.677 110.321  0.00  0.00     0.019 A 
HETATM    6  C   UNK     0     104.647  85.028 111.314  0.00  0.00     0.002 A 
HETATM    7  C   UNK     0     101.877  82.589 112.546  0.00  0.00     0.000 A 
HETATM    8  C   UNK     0     101.200  82.204 111.563  0.00  0.00     0.002 A 
HETATM    9  C   UNK     0     104.773  85.677 107.972  0.00  0.00     0.004 A 
HETATM   10  C   UNK     0     103.978  85.225 106.815  0.00  0.00     0.024 A 
HETATM   11  C   UNK     0     102.691  84.220 106.610  0.00  0.00     0.100 A 
HETATM   12  C   UNK     0     101.220  82.745 108.365  0.00  0.00     0.090 C 
ENDROOT
TORSDOF 1
ENDMDL
MODEL 6
REMARK VINA RESULT:      -5.4     26.500     28.237
REMARK  1 active torsions:
REMARK  status: ('A' for Active; 'I' for Inactive)
REMARK    1  A    between atoms: C_10  and  C_11 
ROOT
HETATM    1  N   UNK     0      81.682  92.570 117.766  0.00  0.00    -0.348 N 
HETATM    2  C   UNK     0      80.509  93.111 119.908  0.00  0.00     0.021 A 
HETATM    3  C   UNK     0      81.055  92.751 118.838  0.00  0.00     0.083 A 
HETATM    4  C   UNK     0      79.170  89.970 119.849  0.00  0.00     0.004 A 
HETATM    5  C   UNK     0      79.947  90.508 119.026  0.00  0.00     0.019 A 
HETATM    6  C   UNK     0      78.585  90.574 121.139  0.00  0.00     0.002 A 
HETATM    7  C   UNK     0      79.361  88.051 118.280  0.00  0.00     0.000 A 
HETATM    8  C   UNK     0      80.139  88.589 117.457  0.00  0.00     0.002 A 
HETATM    9  C   UNK     0      80.056  93.641 120.949  0.00  0.00     0.004 A 
HETATM   10  C   UNK     0      80.971  94.274 119.981  0.00  0.00     0.024 A 
HETATM   11  C   UNK     0      81.688  93.801 118.577  0.00  0.00     0.100 A 
HETATM   12  C   UNK     0      81.595  91.473 117.166  0.00  0.00     0.090 C 
ENDROOT
TORSDOF 1
ENDMDL
MODEL 7
REMARK VINA RESULT:      -5.3      2.584      6.027
REMARK  1 active torsions:
REMARK  status: ('A' for Active; 'I' for Inactive)
REMARK    1  A    between atoms: C_10  and  C_11 
ROOT
HETATM    1  N   UNK     0     103.852  84.461 111.329  0.00  0.00    -0.348 N 
HETATM    2  C   UNK     0     102.153  83.211 109.985  0.00  0.00     0.021 A 
HETATM    3  C   UNK     0     103.036  83.879 110.575  0.00  0.00     0.083 A 
HETATM    4  C   UNK     0     103.376  84.753 107.194  0.00  0.00     0.004 A 
HETATM    5  C   UNK     0     103.748  84.874 108.385  0.00  0.00     0.019 A 
HETATM    6  C   UNK     0     102.248  83.866 106.635  0.00  0.00     0.002 A 
HETATM    7  C   UNK     0     105.194  86.403 106.801  0.00  0.00     0.000 A 
HETATM    8  C   UNK     0     105.566  86.524 107.992  0.00  0.00     0.002 A 
HETATM    9  C   UNK     0     101.227  82.475 109.573  0.00  0.00     0.004 A 
HETATM   10  C   UNK     0     101.664  82.617 110.974  0.00  0.00     0.024 A 
HETATM   11  C   UNK     0     102.822  83.493 111.748  0.00  0.00     0.100 A 
HETATM   12  C   UNK     0     104.684  85.267 110.850  0.00  0.00     0.090 C 
ENDROOT
TORSDOF 1
ENDMDL
MODEL 8
REMARK VINA RESULT:      -5.2      3.040      6.048
REMARK  1 active torsions:
REMARK  status: ('A' for Active; 'I' for Inactive)
REMARK    1  A    between atoms: C_10  and  C_11 
ROOT
HETATM    1  N   UNK     0     108.157  85.626 112.138  0.00  0.00    -0.348 N 
HETATM    2  C   UNK     0     106.386  86.502 110.604  0.00  0.00     0.021 A 
HETATM    3  C   UNK     0     107.340  86.105 111.315  0.00  0.00     0.083 A 
HETATM    4  C   UNK     0     108.860  87.896 108.708  0.00  0.00     0.004 A 
HETATM    5  C   UNK     0     108.962  87.221 109.759  0.00  0.00     0.019 A 
HETATM    6  C   UNK     0     107.577  88.297 107.956  0.00  0.00     0.002 A 
HETATM    7  C   UNK     0     111.339  87.945 108.887  0.00  0.00     0.000 A 
HETATM    8  C   UNK     0     111.442  87.270 109.938  0.00  0.00     0.002 A 
HETATM    9  C   UNK     0     105.318  86.806 110.025  0.00  0.00     0.004 A 
HETATM   10  C   UNK     0     105.437  86.013 111.262  0.00  0.00     0.024 A 
HETATM   11  C   UNK     0     106.690  85.492 112.193  0.00  0.00     0.100 A 
HETATM   12  C   UNK     0     109.387  85.810 111.980  0.00  0.00     0.090 C 
ENDROOT
TORSDOF 1
ENDMDL
MODEL 9
REMARK VINA RESULT:      -5.2     26.666     27.830
REMARK  1 active torsions:
REMARK  status: ('A' for Active; 'I' for Inactive)
REMARK    1  A    between atoms: C_10  and  C_11 
ROOT
HETATM    1  N   UNK     0      81.021  90.622 121.815  0.00  0.00    -0.348 N 
HETATM    2  C   UNK     0      82.075  92.359 120.357  0.00  0.00     0.021 A 
HETATM    3  C   UNK     0      81.516  91.443 121.006  0.00  0.00     0.083 A 
HETATM    4  C   UNK     0      80.921  90.636 117.644  0.00  0.00     0.004 A 
HETATM    5  C   UNK     0      80.784  90.368 118.861  0.00  0.00     0.019 A 
HETATM    6  C   UNK     0      81.656  91.831 117.010  0.00  0.00     0.002 A 
HETATM    7  C   UNK     0      79.600  88.547 117.371  0.00  0.00     0.000 A 
HETATM    8  C   UNK     0      79.463  88.279 118.588  0.00  0.00     0.002 A 
HETATM    9  C   UNK     0      82.683  93.346 119.883  0.00  0.00     0.004 A 
HETATM   10  C   UNK     0      82.523  93.032 121.315  0.00  0.00     0.024 A 
HETATM   11  C   UNK     0      81.789  91.830 122.166  0.00  0.00     0.100 A 
HETATM   12  C   UNK     0      80.385  89.629 121.390  0.00  0.00     0.090 C 
ENDROOT
TORSDOF 1
ENDMDL
MODEL 10
REMARK VINA RESULT:      -5.2      3.261      5.658
REMARK  1 active torsions:
REMARK  status: ('A' for Active; 'I' for Inactive)
REMARK    1  A    between atoms: C_10  and  C_11 
ROOT
HETATM    1  N   UNK     0     101.134  82.597 109.457  0.00  0.00    -0.348 N 
HETATM    2  C   UNK     0     103.030  83.756 110.605  0.00  0.00     0.021 A 
HETATM    3  C   UNK     0     102.111  83.215 109.945  0.00  0.00     0.083 A 
HETATM    4  C   UNK     0     103.940  85.047 107.577  0.00  0.00     0.004 A 
HETATM    5  C   UNK     0     102.982  84.286 107.851  0.00  0.00     0.019 A 
HETATM    6  C   UNK     0     104.997  85.629 108.535  0.00  0.00     0.002 A 
HETATM    7  C   UNK     0     103.020  84.842 105.276  0.00  0.00     0.000 A 
HETATM    8  C   UNK     0     102.062  84.081 105.550  0.00  0.00     0.002 A 
HETATM    9  C   UNK     0     103.869  84.207 111.419  0.00  0.00     0.004 A 
HETATM   10  C   UNK     0     102.742  83.312 111.741  0.00  0.00     0.024 A 
HETATM   11  C   UNK     0     101.536  82.602 110.875  0.00  0.00     0.100 A 
HETATM   12  C   UNK     0     100.895  82.672 108.229  0.00  0.00     0.090 C 
ENDROOT
TORSDOF 1
ENDMDL
