MODEL 1
REMARK VINA RESULT:      -6.8      0.000      0.000
REMARK  7 active torsions:
REMARK  status: ('A' for Active; 'I' for Inactive)
REMARK    1  A    between atoms: O_1  and  C_16 
REMARK    2  A    between atoms: O_1  and  C_24 
REMARK    3  A    between atoms: O_2  and  C_18 
REMARK    4  A    between atoms: O_2  and  C_26 
REMARK    5  A    between atoms: O_5  and  C_29 
REMARK    6  A    between atoms: N_9  and  C_22 
REMARK    7  A    between atoms: C_26  and  C_29 
ROOT
HETATM    1  O   UNK     0      80.557  89.121 117.308  0.00  0.00    -0.290 OA
HETATM    2  O   UNK     0      81.180  92.145 121.659  0.00  0.00    -0.284 OA
HETATM    3  N   UNK     0      79.565  87.083 122.137  0.00  0.00    -0.254 NA
HETATM    4  C   UNK     0      80.434  89.450 120.368  0.00  0.00     0.014 A 
HETATM    5  C   UNK     0      80.061  88.102 119.723  0.00  0.00     0.060 A 
HETATM    6  C   UNK     0      80.373  89.614 121.898  0.00  0.00     0.060 A 
HETATM    7  C   UNK     0      80.869  90.633 119.483  0.00  0.00     0.043 A 
HETATM    8  C   UNK     0      79.627  86.919 120.607  0.00  0.00     0.063 A 
HETATM    9  C   UNK     0      79.938  88.431 122.783  0.00  0.00     0.063 A 
HETATM   10  C   UNK     0      80.123  87.938 118.193  0.00  0.00     0.200 A 
HETATM   11  C   UNK     0      81.242  91.981 120.129  0.00  0.00     0.121 A 
HETATM   12  C   UNK     0      80.746  90.962 122.543  0.00  0.00     0.200 A 
HETATM   13  C   UNK     0      80.930  90.469 117.954  0.00  0.00     0.082 A 
HETATM   14  C   UNK     0      79.254  85.571 119.962  0.00  0.00     0.052 C 
HETATM   15  C   UNK     0      79.877  88.595 124.313  0.00  0.00     0.052 C 
HETATM   16  C   UNK     0      81.676  93.164 119.244  0.00  0.00     0.127 A 
HETATM   17  C   UNK     0      81.365  91.652 117.069  0.00  0.00     0.058 A 
HETATM   18  C   UNK     0      81.738  93.000 117.714  0.00  0.00     0.059 A 
ENDROOT
BRANCH  12  19
HETATM   19  O   UNK     0      80.684  91.126 124.074  0.00  0.00    -0.308 OA
BRANCH  19  20
HETATM   20  C   UNK     0      81.984  91.295 124.882  0.00  0.00     0.183 C 
BRANCH  20  21
HETATM   21  C   UNK     0      83.317  90.775 124.314  0.00  0.00     0.175 C 
BRANCH  21  22
HETATM   22  O   UNK     0      84.392  90.213 125.263  0.00  0.00    -0.349 OA
HETATM   23  C   UNK     0      85.626  91.063 125.619  0.00  0.00     0.174 C 
ENDBRANCH  21  22
ENDBRANCH  20  21
ENDBRANCH  19  20
ENDBRANCH  12  19
BRANCH  16  24
HETATM   24  N   UNK     0      82.049  94.512 119.890  0.00  0.00    -0.116 N 
HETATM   25  O   UNK     0      81.055  95.687 119.847  0.00  0.00    -0.532 OA
HETATM   26  O   UNK     0      83.417  94.684 120.577  0.00  0.00    -0.532 OA
ENDBRANCH  16  24
BRANCH  10  27
HETATM   27  O   UNK     0      79.750  86.591 117.548  0.00  0.00    -0.313 OA
BRANCH  27  28
HETATM   28  C   UNK     0      78.932  86.562 116.243  0.00  0.00     0.124 C 
HETATM   29  C   UNK     0      77.766  87.547 116.042  0.00  0.00     0.033 C 
HETATM   30  C   UNK     0      79.282  85.547 115.138  0.00  0.00     0.033 C 
ENDBRANCH  27  28
ENDBRANCH  10  27
TORSDOF 7
ENDMDL
MODEL 2
REMARK VINA RESULT:      -6.5     25.054     26.604
REMARK  7 active torsions:
REMARK  status: ('A' for Active; 'I' for Inactive)
REMARK    1  A    between atoms: O_1  and  C_16 
REMARK    2  A    between atoms: O_1  and  C_24 
REMARK    3  A    between atoms: O_2  and  C_18 
REMARK    4  A    between atoms: O_2  and  C_26 
REMARK    5  A    between atoms: O_5  and  C_29 
REMARK    6  A    between atoms: N_9  and  C_22 
REMARK    7  A    between atoms: C_26  and  C_29 
ROOT
HETATM    1  O   UNK     0     100.557  81.645 108.727  0.00  0.00    -0.290 OA
HETATM    2  O   UNK     0     103.513  85.309 106.216  0.00  0.00    -0.284 OA
HETATM    3  N   UNK     0     104.394  84.243 111.369  0.00  0.00    -0.254 NA
HETATM    4  C   UNK     0     102.821  83.732 108.771  0.00  0.00     0.014 A 
HETATM    5  C   UNK     0     102.476  82.944 110.047  0.00  0.00     0.060 A 
HETATM    6  C   UNK     0     103.954  84.776 108.793  0.00  0.00     0.060 A 
HETATM    7  C   UNK     0     102.035  83.476 107.472  0.00  0.00     0.043 A 
HETATM    8  C   UNK     0     103.263  83.200 111.347  0.00  0.00     0.063 A 
HETATM    9  C   UNK     0     104.740  85.032 110.092  0.00  0.00     0.063 A 
HETATM   10  C   UNK     0     101.344  81.900 110.026  0.00  0.00     0.200 A 
HETATM   11  C   UNK     0     102.380  84.265 106.194  0.00  0.00     0.121 A 
HETATM   12  C   UNK     0     104.299  85.564 107.515  0.00  0.00     0.200 A 
HETATM   13  C   UNK     0     100.903  82.433 107.449  0.00  0.00     0.082 A 
HETATM   14  C   UNK     0     102.917  82.411 112.624  0.00  0.00     0.052 C 
HETATM   15  C   UNK     0     105.872  86.076 110.113  0.00  0.00     0.052 C 
HETATM   16  C   UNK     0     101.594  84.009 104.895  0.00  0.00     0.127 A 
HETATM   17  C   UNK     0     100.117  82.177 106.150  0.00  0.00     0.058 A 
HETATM   18  C   UNK     0     100.462  82.965 104.873  0.00  0.00     0.059 A 
ENDROOT
BRANCH  12  19
HETATM   19  O   UNK     0     105.431  86.609 107.537  0.00  0.00    -0.308 OA
BRANCH  19  20
HETATM   20  C   UNK     0     106.129  87.015 106.226  0.00  0.00     0.183 C 
BRANCH  20  21
HETATM   21  C   UNK     0     107.389  87.899 106.267  0.00  0.00     0.175 C 
BRANCH  21  22
HETATM   22  O   UNK     0     107.781  88.623 107.569  0.00  0.00    -0.349 OA
HETATM   23  C   UNK     0     108.755  87.955 108.558  0.00  0.00     0.174 C 
ENDBRANCH  21  22
ENDBRANCH  20  21
ENDBRANCH  19  20
ENDBRANCH  12  19
BRANCH  16  24
HETATM   24  N   UNK     0     101.940  84.798 103.618  0.00  0.00    -0.116 N 
HETATM   25  O   UNK     0     101.303  86.178 103.369  0.00  0.00    -0.532 OA
HETATM   26  O   UNK     0     102.922  84.206 102.590  0.00  0.00    -0.532 OA
ENDBRANCH  16  24
BRANCH  10  27
HETATM   27  O   UNK     0     100.999  81.112 111.302  0.00  0.00    -0.313 OA
BRANCH  27  28
HETATM   28  C   UNK     0     100.882  79.577 111.252  0.00  0.00     0.124 C 
HETATM   29  C   UNK     0      99.494  78.910 111.253  0.00  0.00     0.033 C 
HETATM   30  C   UNK     0     102.153  78.710 111.201  0.00  0.00     0.033 C 
ENDBRANCH  27  28
ENDBRANCH  10  27
TORSDOF 7
ENDMDL
MODEL 3
REMARK VINA RESULT:      -6.3     25.666     26.877
REMARK  7 active torsions:
REMARK  status: ('A' for Active; 'I' for Inactive)
REMARK    1  A    between atoms: O_1  and  C_16 
REMARK    2  A    between atoms: O_1  and  C_24 
REMARK    3  A    between atoms: O_2  and  C_18 
REMARK    4  A    between atoms: O_2  and  C_26 
REMARK    5  A    between atoms: O_5  and  C_29 
REMARK    6  A    between atoms: N_9  and  C_22 
REMARK    7  A    between atoms: C_26  and  C_29 
ROOT
HETATM    1  O   UNK     0     103.246  84.822 105.234  0.00  0.00    -0.290 OA
HETATM    2  O   UNK     0     105.857  85.750 109.793  0.00  0.00    -0.284 OA
HETATM    3  N   UNK     0     101.559  82.589 109.776  0.00  0.00    -0.254 NA
HETATM    4  C   UNK     0     103.554  84.387 108.268  0.00  0.00     0.014 A 
HETATM    5  C   UNK     0     102.403  83.706 107.506  0.00  0.00     0.060 A 
HETATM    6  C   UNK     0     103.708  84.170 109.785  0.00  0.00     0.060 A 
HETATM    7  C   UNK     0     104.551  85.286 107.513  0.00  0.00     0.043 A 
HETATM    8  C   UNK     0     101.406  82.807 108.260  0.00  0.00     0.063 A 
HETATM    9  C   UNK     0     102.711  83.271 110.539  0.00  0.00     0.063 A 
HETATM   10  C   UNK     0     102.249  83.923 105.989  0.00  0.00     0.200 A 
HETATM   11  C   UNK     0     105.703  85.968 108.276  0.00  0.00     0.121 A 
HETATM   12  C   UNK     0     104.860  84.851 110.548  0.00  0.00     0.200 A 
HETATM   13  C   UNK     0     104.398  85.504 105.997  0.00  0.00     0.082 A 
HETATM   14  C   UNK     0     100.254  82.125 107.497  0.00  0.00     0.052 C 
HETATM   15  C   UNK     0     102.865  83.053 112.056  0.00  0.00     0.052 C 
HETATM   16  C   UNK     0     106.700  86.867 107.522  0.00  0.00     0.127 A 
HETATM   17  C   UNK     0     105.395  86.403 105.243  0.00  0.00     0.058 A 
HETATM   18  C   UNK     0     106.546  87.084 106.005  0.00  0.00     0.059 A 
ENDROOT
BRANCH  12  19
HETATM   19  O   UNK     0     105.014  84.634 112.065  0.00  0.00    -0.308 OA
BRANCH  19  20
HETATM   20  C   UNK     0     106.400  84.332 112.662  0.00  0.00     0.183 C 
BRANCH  20  21
HETATM   21  C   UNK     0     107.387  85.482 112.938  0.00  0.00     0.175 C 
BRANCH  21  22
HETATM   22  O   UNK     0     108.902  85.249 112.796  0.00  0.00    -0.349 OA
HETATM   23  C   UNK     0     109.864  86.450 112.731  0.00  0.00     0.174 C 
ENDBRANCH  21  22
ENDBRANCH  20  21
ENDBRANCH  19  20
ENDBRANCH  12  19
BRANCH  16  24
HETATM   24  N   UNK     0     107.852  87.548 108.285  0.00  0.00    -0.116 N 
HETATM   25  O   UNK     0     108.273  88.984 107.921  0.00  0.00    -0.532 OA
HETATM   26  O   UNK     0     108.582  86.794 109.412  0.00  0.00    -0.532 OA
ENDBRANCH  16  24
BRANCH  10  27
HETATM   27  O   UNK     0     101.098  83.242 105.227  0.00  0.00    -0.313 OA
BRANCH  27  28
HETATM   28  C   UNK     0      99.981  84.095 104.596  0.00  0.00     0.124 C 
HETATM   29  C   UNK     0      99.932  84.294 103.069  0.00  0.00     0.033 C 
HETATM   30  C   UNK     0      98.912  84.749 105.492  0.00  0.00     0.033 C 
ENDBRANCH  27  28
ENDBRANCH  10  27
TORSDOF 7
ENDMDL
MODEL 4
REMARK VINA RESULT:      -6.3     25.377     27.199
REMARK  7 active torsions:
REMARK  status: ('A' for Active; 'I' for Inactive)
REMARK    1  A    between atoms: O_1  and  C_16 
REMARK    2  A    between atoms: O_1  and  C_24 
REMARK    3  A    between atoms: O_2  and  C_18 
REMARK    4  A    between atoms: O_2  and  C_26 
REMARK    5  A    between atoms: O_5  and  C_29 
REMARK    6  A    between atoms: N_9  and  C_22 
REMARK    7  A    between atoms: C_26  and  C_29 
ROOT
HETATM    1  O   UNK     0     105.181  86.553 106.033  0.00  0.00    -0.290 OA
HETATM    2  O   UNK     0     101.470  82.868 107.088  0.00  0.00    -0.284 OA
HETATM    3  N   UNK     0     104.377  84.939 111.053  0.00  0.00    -0.254 NA
HETATM    4  C   UNK     0     103.676  84.787 108.058  0.00  0.00     0.014 A 
HETATM    5  C   UNK     0     104.779  85.745 108.543  0.00  0.00     0.060 A 
HETATM    6  C   UNK     0     102.924  83.903 109.071  0.00  0.00     0.060 A 
HETATM    7  C   UNK     0     103.326  84.711 106.560  0.00  0.00     0.043 A 
HETATM    8  C   UNK     0     105.129  85.821 110.041  0.00  0.00     0.063 A 
HETATM    9  C   UNK     0     103.274  83.979 110.568  0.00  0.00     0.063 A 
HETATM   10  C   UNK     0     105.531  86.629 107.530  0.00  0.00     0.200 A 
HETATM   11  C   UNK     0     102.223  83.751 106.075  0.00  0.00     0.121 A 
HETATM   12  C   UNK     0     101.821  82.944 108.585  0.00  0.00     0.200 A 
HETATM   13  C   UNK     0     104.078  85.594 105.548  0.00  0.00     0.082 A 
HETATM   14  C   UNK     0     106.232  86.781 110.526  0.00  0.00     0.052 C 
HETATM   15  C   UNK     0     102.522  83.096 111.581  0.00  0.00     0.052 C 
HETATM   16  C   UNK     0     101.873  83.675 104.577  0.00  0.00     0.127 A 
HETATM   17  C   UNK     0     103.728  85.518 104.050  0.00  0.00     0.058 A 
HETATM   18  C   UNK     0     102.625  84.559 103.565  0.00  0.00     0.059 A 
ENDROOT
BRANCH  12  19
HETATM   19  O   UNK     0     101.068  82.060 109.598  0.00  0.00    -0.308 OA
BRANCH  19  20
HETATM   20  C   UNK     0     101.033  80.533 109.410  0.00  0.00     0.183 C 
BRANCH  20  21
HETATM   21  C   UNK     0     100.962  79.607 110.639  0.00  0.00     0.175 C 
BRANCH  21  22
HETATM   22  O   UNK     0      99.622  79.393 111.366  0.00  0.00    -0.349 OA
HETATM   23  C   UNK     0      98.988  77.990 111.418  0.00  0.00     0.174 C 
ENDBRANCH  21  22
ENDBRANCH  20  21
ENDBRANCH  19  20
ENDBRANCH  12  19
BRANCH  16  24
HETATM   24  N   UNK     0     100.769  82.716 104.092  0.00  0.00    -0.116 N 
HETATM   25  O   UNK     0     101.054  81.206 103.988  0.00  0.00    -0.532 OA
HETATM   26  O   UNK     0      99.382  83.267 103.712  0.00  0.00    -0.532 OA
ENDBRANCH  16  24
BRANCH  10  27
HETATM   27  O   UNK     0     106.634  87.588 108.016  0.00  0.00    -0.313 OA
BRANCH  27  28
HETATM   28  C   UNK     0     108.113  87.271 107.724  0.00  0.00     0.124 C 
HETATM   29  C   UNK     0     109.224  87.988 108.514  0.00  0.00     0.033 C 
HETATM   30  C   UNK     0     108.480  86.237 106.644  0.00  0.00     0.033 C 
ENDBRANCH  27  28
ENDBRANCH  10  27
TORSDOF 7
ENDMDL
MODEL 5
REMARK VINA RESULT:      -6.2      1.882      2.308
REMARK  7 active torsions:
REMARK  status: ('A' for Active; 'I' for Inactive)
REMARK    1  A    between atoms: O_1  and  C_16 
REMARK    2  A    between atoms: O_1  and  C_24 
REMARK    3  A    between atoms: O_2  and  C_18 
REMARK    4  A    between atoms: O_2  and  C_26 
REMARK    5  A    between atoms: O_5  and  C_29 
REMARK    6  A    between atoms: N_9  and  C_22 
REMARK    7  A    between atoms: C_26  and  C_29 
ROOT
HETATM    1  O   UNK     0      80.698  88.353 117.478  0.00  0.00    -0.290 OA
HETATM    2  O   UNK     0      80.530  91.513 121.773  0.00  0.00    -0.284 OA
HETATM    3  N   UNK     0      79.330  86.334 122.223  0.00  0.00    -0.254 NA
HETATM    4  C   UNK     0      80.186  88.733 120.491  0.00  0.00     0.014 A 
HETATM    5  C   UNK     0      80.014  87.344 119.851  0.00  0.00     0.060 A 
HETATM    6  C   UNK     0      79.930  88.924 121.998  0.00  0.00     0.060 A 
HETATM    7  C   UNK     0      80.614  89.933 119.625  0.00  0.00     0.043 A 
HETATM    8  C   UNK     0      79.586  86.144 120.717  0.00  0.00     0.063 A 
HETATM    9  C   UNK     0      79.502  87.724 122.864  0.00  0.00     0.063 A 
HETATM   10  C   UNK     0      80.270  87.153 118.344  0.00  0.00     0.200 A 
HETATM   11  C   UNK     0      80.786  91.323 120.266  0.00  0.00     0.121 A 
HETATM   12  C   UNK     0      80.102  90.314 122.639  0.00  0.00     0.200 A 
HETATM   13  C   UNK     0      80.870  89.743 118.119  0.00  0.00     0.082 A 
HETATM   14  C   UNK     0      79.414  84.754 120.076  0.00  0.00     0.052 C 
HETATM   15  C   UNK     0      79.246  87.915 124.371  0.00  0.00     0.052 C 
HETATM   16  C   UNK     0      81.214  92.522 119.400  0.00  0.00     0.127 A 
HETATM   17  C   UNK     0      81.298  90.942 117.253  0.00  0.00     0.058 A 
HETATM   18  C   UNK     0      81.470  92.332 117.893  0.00  0.00     0.059 A 
ENDROOT
BRANCH  12  19
HETATM   19  O   UNK     0      79.846  90.504 124.146  0.00  0.00    -0.308 OA
BRANCH  19  20
HETATM   20  C   UNK     0      78.711  91.429 124.623  0.00  0.00     0.183 C 
BRANCH  20  21
HETATM   21  C   UNK     0      77.926  91.088 125.903  0.00  0.00     0.175 C 
BRANCH  21  22
HETATM   22  O   UNK     0      78.670  90.911 127.239  0.00  0.00    -0.349 OA
HETATM   23  C   UNK     0      79.903  91.779 127.555  0.00  0.00     0.174 C 
ENDBRANCH  21  22
ENDBRANCH  20  21
ENDBRANCH  19  20
ENDBRANCH  12  19
BRANCH  16  24
HETATM   24  N   UNK     0      81.386  93.912 120.041  0.00  0.00    -0.116 N 
HETATM   25  O   UNK     0      82.794  94.433 120.385  0.00  0.00    -0.532 OA
HETATM   26  O   UNK     0      80.149  94.782 120.338  0.00  0.00    -0.532 OA
ENDBRANCH  16  24
BRANCH  10  27
HETATM   27  O   UNK     0      80.098  85.764 117.704  0.00  0.00    -0.313 OA
BRANCH  27  28
HETATM   28  C   UNK     0      79.146  85.580 116.508  0.00  0.00     0.124 C 
HETATM   29  C   UNK     0      79.592  86.003 115.095  0.00  0.00     0.033 C 
HETATM   30  C   UNK     0      77.747  84.972 116.723  0.00  0.00     0.033 C 
ENDBRANCH  27  28
ENDBRANCH  10  27
TORSDOF 7
ENDMDL
MODEL 6
REMARK VINA RESULT:      -6.1     25.224     26.820
REMARK  7 active torsions:
REMARK  status: ('A' for Active; 'I' for Inactive)
REMARK    1  A    between atoms: O_1  and  C_16 
REMARK    2  A    between atoms: O_1  and  C_24 
REMARK    3  A    between atoms: O_2  and  C_18 
REMARK    4  A    between atoms: O_2  and  C_26 
REMARK    5  A    between atoms: O_5  and  C_29 
REMARK    6  A    between atoms: N_9  and  C_22 
REMARK    7  A    between atoms: C_26  and  C_29 
ROOT
HETATM    1  O   UNK     0     101.189  81.973 109.354  0.00  0.00    -0.290 OA
HETATM    2  O   UNK     0     104.717  85.797 108.172  0.00  0.00    -0.284 OA
HETATM    3  N   UNK     0     101.919  83.453 104.281  0.00  0.00    -0.254 NA
HETATM    4  C   UNK     0     102.608  83.741 107.269  0.00  0.00     0.014 A 
HETATM    5  C   UNK     0     101.554  82.713 106.818  0.00  0.00     0.060 A 
HETATM    6  C   UNK     0     103.318  84.625 106.227  0.00  0.00     0.060 A 
HETATM    7  C   UNK     0     102.952  83.885 108.763  0.00  0.00     0.043 A 
HETATM    8  C   UNK     0     101.210  82.570 105.323  0.00  0.00     0.063 A 
HETATM    9  C   UNK     0     102.973  84.481 104.733  0.00  0.00     0.063 A 
HETATM   10  C   UNK     0     100.844  81.829 107.860  0.00  0.00     0.200 A 
HETATM   11  C   UNK     0     104.007  84.912 109.215  0.00  0.00     0.121 A 
HETATM   12  C   UNK     0     104.372  85.653 106.678  0.00  0.00     0.200 A 
HETATM   13  C   UNK     0     102.243  83.001 109.806  0.00  0.00     0.082 A 
HETATM   14  C   UNK     0     100.155  81.542 104.872  0.00  0.00     0.052 C 
HETATM   15  C   UNK     0     103.683  85.365 103.690  0.00  0.00     0.052 C 
HETATM   16  C   UNK     0     104.351  85.056 110.709  0.00  0.00     0.127 A 
HETATM   17  C   UNK     0     102.588  83.145 111.300  0.00  0.00     0.058 A 
HETATM   18  C   UNK     0     103.641  84.172 111.751  0.00  0.00     0.059 A 
ENDROOT
BRANCH  12  19
HETATM   19  O   UNK     0     105.082  86.537 105.636  0.00  0.00    -0.308 OA
BRANCH  19  20
HETATM   20  C   UNK     0     106.617  86.657 105.646  0.00  0.00     0.183 C 
BRANCH  20  21
HETATM   21  C   UNK     0     107.288  87.897 106.267  0.00  0.00     0.175 C 
BRANCH  21  22
HETATM   22  O   UNK     0     107.196  88.144 107.785  0.00  0.00    -0.349 OA
HETATM   23  C   UNK     0     108.411  87.859 108.687  0.00  0.00     0.174 C 
ENDBRANCH  21  22
ENDBRANCH  20  21
ENDBRANCH  19  20
ENDBRANCH  12  19
BRANCH  16  24
HETATM   24  N   UNK     0     105.406  86.084 111.161  0.00  0.00    -0.116 N 
HETATM   25  O   UNK     0     105.310  87.545 110.684  0.00  0.00    -0.532 OA
HETATM   26  O   UNK     0     106.556  85.651 112.089  0.00  0.00    -0.532 OA
ENDBRANCH  16  24
BRANCH  10  27
HETATM   27  O   UNK     0      99.790  80.802 107.408  0.00  0.00    -0.313 OA
BRANCH  27  28
HETATM   28  C   UNK     0      99.875  79.345 107.900  0.00  0.00     0.124 C 
HETATM   29  C   UNK     0      98.591  78.586 108.284  0.00  0.00     0.033 C 
HETATM   30  C   UNK     0     101.243  78.647 108.009  0.00  0.00     0.033 C 
ENDBRANCH  27  28
ENDBRANCH  10  27
TORSDOF 7
ENDMDL
MODEL 7
REMARK VINA RESULT:      -6.1     25.089     26.689
REMARK  7 active torsions:
REMARK  status: ('A' for Active; 'I' for Inactive)
REMARK    1  A    between atoms: O_1  and  C_16 
REMARK    2  A    between atoms: O_1  and  C_24 
REMARK    3  A    between atoms: O_2  and  C_18 
REMARK    4  A    between atoms: O_2  and  C_26 
REMARK    5  A    between atoms: O_5  and  C_29 
REMARK    6  A    between atoms: N_9  and  C_22 
REMARK    7  A    between atoms: C_26  and  C_29 
ROOT
HETATM    1  O   UNK     0     101.312  82.287 105.752  0.00  0.00    -0.290 OA
HETATM    2  O   UNK     0     103.667  84.206 110.138  0.00  0.00    -0.284 OA
HETATM    3  N   UNK     0     104.766  86.334 105.371  0.00  0.00    -0.254 NA
HETATM    4  C   UNK     0     103.248  84.276 107.087  0.00  0.00     0.014 A 
HETATM    5  C   UNK     0     103.039  84.311 105.562  0.00  0.00     0.060 A 
HETATM    6  C   UNK     0     104.216  85.270 107.755  0.00  0.00     0.060 A 
HETATM    7  C   UNK     0     102.489  83.246 107.945  0.00  0.00     0.043 A 
HETATM    8  C   UNK     0     103.798  85.340 104.704  0.00  0.00     0.063 A 
HETATM    9  C   UNK     0     104.975  86.300 106.897  0.00  0.00     0.063 A 
HETATM   10  C   UNK     0     102.071  83.316 104.895  0.00  0.00     0.200 A 
HETATM   11  C   UNK     0     102.699  83.211 109.470  0.00  0.00     0.121 A 
HETATM   12  C   UNK     0     104.426  85.235 109.280  0.00  0.00     0.200 A 
HETATM   13  C   UNK     0     101.522  82.252 107.278  0.00  0.00     0.082 A 
HETATM   14  C   UNK     0     103.589  85.375 103.179  0.00  0.00     0.052 C 
HETATM   15  C   UNK     0     105.944  87.294 107.564  0.00  0.00     0.052 C 
HETATM   16  C   UNK     0     101.940  82.182 110.328  0.00  0.00     0.127 A 
HETATM   17  C   UNK     0     100.763  81.223 108.136  0.00  0.00     0.058 A 
HETATM   18  C   UNK     0     100.972  81.188 109.661  0.00  0.00     0.059 A 
ENDROOT
BRANCH  12  19
HETATM   19  O   UNK     0     105.394  86.230 109.948  0.00  0.00    -0.308 OA
BRANCH  19  20
HETATM   20  C   UNK     0     105.535  86.256 111.481  0.00  0.00     0.183 C 
BRANCH  20  21
HETATM   21  C   UNK     0     106.563  85.343 112.175  0.00  0.00     0.175 C 
BRANCH  21  22
HETATM   22  O   UNK     0     107.250  85.805 113.474  0.00  0.00    -0.349 OA
HETATM   23  C   UNK     0     108.787  85.825 113.568  0.00  0.00     0.174 C 
ENDBRANCH  21  22
ENDBRANCH  20  21
ENDBRANCH  19  20
ENDBRANCH  12  19
BRANCH  16  24
HETATM   24  N   UNK     0     102.149  82.147 111.854  0.00  0.00    -0.116 N 
HETATM   25  O   UNK     0     103.261  81.270 112.459  0.00  0.00    -0.532 OA
HETATM   26  O   UNK     0     101.247  82.990 112.775  0.00  0.00    -0.532 OA
ENDBRANCH  16  24
BRANCH  10  27
HETATM   27  O   UNK     0     101.862  83.351 103.370  0.00  0.00    -0.313 OA
BRANCH  27  28
HETATM   28  C   UNK     0     100.526  83.849 102.787  0.00  0.00     0.124 C 
HETATM   29  C   UNK     0      99.484  84.514 103.706  0.00  0.00     0.033 C 
HETATM   30  C   UNK     0     100.231  83.682 101.285  0.00  0.00     0.033 C 
ENDBRANCH  27  28
ENDBRANCH  10  27
TORSDOF 7
ENDMDL
MODEL 8
REMARK VINA RESULT:      -6.1      2.535      3.234
REMARK  7 active torsions:
REMARK  status: ('A' for Active; 'I' for Inactive)
REMARK    1  A    between atoms: O_1  and  C_16 
REMARK    2  A    between atoms: O_1  and  C_24 
REMARK    3  A    between atoms: O_2  and  C_18 
REMARK    4  A    between atoms: O_2  and  C_26 
REMARK    5  A    between atoms: O_5  and  C_29 
REMARK    6  A    between atoms: N_9  and  C_22 
REMARK    7  A    between atoms: C_26  and  C_29 
ROOT
HETATM    1  O   UNK     0      79.176  88.618 116.961  0.00  0.00    -0.290 OA
HETATM    2  O   UNK     0      81.066  89.030 121.933  0.00  0.00    -0.284 OA
HETATM    3  N   UNK     0      78.717  84.514 120.338  0.00  0.00    -0.254 NA
HETATM    4  C   UNK     0      79.653  87.387 119.744  0.00  0.00     0.014 A 
HETATM    5  C   UNK     0      78.947  86.566 118.650  0.00  0.00     0.060 A 
HETATM    6  C   UNK     0      79.892  86.772 121.135  0.00  0.00     0.060 A 
HETATM    7  C   UNK     0      80.121  88.824 119.447  0.00  0.00     0.043 A 
HETATM    8  C   UNK     0      78.479  85.129 118.947  0.00  0.00     0.063 A 
HETATM    9  C   UNK     0      79.424  85.335 121.433  0.00  0.00     0.063 A 
HETATM   10  C   UNK     0      78.708  87.181 117.258  0.00  0.00     0.200 A 
HETATM   11  C   UNK     0      80.828  89.645 120.541  0.00  0.00     0.121 A 
HETATM   12  C   UNK     0      80.598  87.593 122.230  0.00  0.00     0.200 A 
HETATM   13  C   UNK     0      79.883  89.439 118.056  0.00  0.00     0.082 A 
HETATM   14  C   UNK     0      77.772  84.307 117.853  0.00  0.00     0.052 C 
HETATM   15  C   UNK     0      79.662  84.720 122.824  0.00  0.00     0.052 C 
HETATM   16  C   UNK     0      81.296  91.082 120.244  0.00  0.00     0.127 A 
HETATM   17  C   UNK     0      80.351  90.876 117.759  0.00  0.00     0.058 A 
HETATM   18  C   UNK     0      81.057  91.697 118.852  0.00  0.00     0.059 A 
ENDROOT
BRANCH  12  19
HETATM   19  O   UNK     0      80.837  86.978 123.622  0.00  0.00    -0.308 OA
BRANCH  19  20
HETATM   20  C   UNK     0      82.256  86.952 124.219  0.00  0.00     0.183 C 
BRANCH  20  21
HETATM   21  C   UNK     0      83.483  87.049 123.293  0.00  0.00     0.175 C 
BRANCH  21  22
HETATM   22  O   UNK     0      83.736  85.961 122.232  0.00  0.00    -0.349 OA
HETATM   23  C   UNK     0      85.078  85.206 122.208  0.00  0.00     0.174 C 
ENDBRANCH  21  22
ENDBRANCH  20  21
ENDBRANCH  19  20
ENDBRANCH  12  19
BRANCH  16  24
HETATM   24  N   UNK     0      82.003  91.904 121.339  0.00  0.00    -0.116 N 
HETATM   25  O   UNK     0      81.174  92.605 122.431  0.00  0.00    -0.532 OA
HETATM   26  O   UNK     0      83.538  92.024 121.341  0.00  0.00    -0.532 OA
ENDBRANCH  16  24
BRANCH  10  27
HETATM   27  O   UNK     0      78.002  86.360 116.165  0.00  0.00    -0.313 OA
BRANCH  27  28
HETATM   28  C   UNK     0      76.718  86.898 115.506  0.00  0.00     0.124 C 
HETATM   29  C   UNK     0      75.372  86.187 115.746  0.00  0.00     0.033 C 
HETATM   30  C   UNK     0      76.778  88.147 114.607  0.00  0.00     0.033 C 
ENDBRANCH  27  28
ENDBRANCH  10  27
TORSDOF 7
ENDMDL
MODEL 9
REMARK VINA RESULT:      -5.8     20.986     24.396
REMARK  7 active torsions:
REMARK  status: ('A' for Active; 'I' for Inactive)
REMARK    1  A    between atoms: O_1  and  C_16 
REMARK    2  A    between atoms: O_1  and  C_24 
REMARK    3  A    between atoms: O_2  and  C_18 
REMARK    4  A    between atoms: O_2  and  C_26 
REMARK    5  A    between atoms: O_5  and  C_29 
REMARK    6  A    between atoms: N_9  and  C_22 
REMARK    7  A    between atoms: C_26  and  C_29 
ROOT
HETATM    1  O   UNK     0      82.167  85.425  99.335  0.00  0.00    -0.290 OA
HETATM    2  O   UNK     0      82.284  90.180  96.918  0.00  0.00    -0.284 OA
HETATM    3  N   UNK     0      85.462  86.245  95.221  0.00  0.00    -0.254 NA
HETATM    4  C   UNK     0      83.304  87.283  97.158  0.00  0.00     0.014 A 
HETATM    5  C   UNK     0      83.815  85.836  97.278  0.00  0.00     0.060 A 
HETATM    6  C   UNK     0      83.873  88.212  96.070  0.00  0.00     0.060 A 
HETATM    7  C   UNK     0      82.225  87.802  98.127  0.00  0.00     0.043 A 
HETATM    8  C   UNK     0      84.894  85.317  96.309  0.00  0.00     0.063 A 
HETATM    9  C   UNK     0      84.952  87.694  95.101  0.00  0.00     0.063 A 
HETATM   10  C   UNK     0      83.246  84.906  98.366  0.00  0.00     0.200 A 
HETATM   11  C   UNK     0      81.715  89.250  98.007  0.00  0.00     0.121 A 
HETATM   12  C   UNK     0      83.363  89.661  95.949  0.00  0.00     0.200 A 
HETATM   13  C   UNK     0      81.657  86.873  99.215  0.00  0.00     0.082 A 
HETATM   14  C   UNK     0      85.404  83.868  96.429  0.00  0.00     0.052 C 
HETATM   15  C   UNK     0      85.521  88.623  94.012  0.00  0.00     0.052 C 
HETATM   16  C   UNK     0      80.636  89.769  98.975  0.00  0.00     0.127 A 
HETATM   17  C   UNK     0      80.578  87.392 100.184  0.00  0.00     0.058 A 
HETATM   18  C   UNK     0      80.067  88.840 100.064  0.00  0.00     0.059 A 
ENDROOT
BRANCH  12  19
HETATM   19  O   UNK     0      83.931  90.590  94.861  0.00  0.00    -0.308 OA
BRANCH  19  20
HETATM   20  C   UNK     0      83.126  91.819  94.400  0.00  0.00     0.183 C 
BRANCH  20  21
HETATM   21  C   UNK     0      82.426  91.810  93.029  0.00  0.00     0.175 C 
BRANCH  21  22
HETATM   22  O   UNK     0      83.165  91.272  91.789  0.00  0.00    -0.349 OA
HETATM   23  C   UNK     0      83.043  89.786  91.404  0.00  0.00     0.174 C 
ENDBRANCH  21  22
ENDBRANCH  20  21
ENDBRANCH  19  20
ENDBRANCH  12  19
BRANCH  16  24
HETATM   24  N   UNK     0      80.126  91.217  98.855  0.00  0.00    -0.116 N 
HETATM   25  O   UNK     0      81.026  92.389  99.289  0.00  0.00    -0.532 OA
HETATM   26  O   UNK     0      78.715  91.494  98.302  0.00  0.00    -0.532 OA
ENDBRANCH  16  24
BRANCH  10  27
HETATM   27  O   UNK     0      83.756  83.459  98.486  0.00  0.00    -0.313 OA
BRANCH  27  28
HETATM   28  C   UNK     0      82.767  82.283  98.385  0.00  0.00     0.124 C 
HETATM   29  C   UNK     0      81.408  82.476  97.686  0.00  0.00     0.033 C 
HETATM   30  C   UNK     0      83.136  80.913  98.984  0.00  0.00     0.033 C 
ENDBRANCH  27  28
ENDBRANCH  10  27
TORSDOF 7
ENDMDL
MODEL 10
REMARK VINA RESULT:      -5.8     49.906     52.162
REMARK  7 active torsions:
REMARK  status: ('A' for Active; 'I' for Inactive)
REMARK    1  A    between atoms: O_1  and  C_16 
REMARK    2  A    between atoms: O_1  and  C_24 
REMARK    3  A    between atoms: O_2  and  C_18 
REMARK    4  A    between atoms: O_2  and  C_26 
REMARK    5  A    between atoms: O_5  and  C_29 
REMARK    6  A    between atoms: N_9  and  C_22 
REMARK    7  A    between atoms: C_26  and  C_29 
ROOT
HETATM    1  O   UNK     0     118.814  87.595  89.515  0.00  0.00    -0.290 OA
HETATM    2  O   UNK     0     122.893  85.062  87.190  0.00  0.00    -0.284 OA
HETATM    3  N   UNK     0     117.921  84.307  85.410  0.00  0.00    -0.254 NA
HETATM    4  C   UNK     0     119.876  85.655  87.372  0.00  0.00     0.014 A 
HETATM    5  C   UNK     0     118.368  85.951  87.463  0.00  0.00     0.060 A 
HETATM    6  C   UNK     0     120.407  84.685  86.300  0.00  0.00     0.060 A 
HETATM    7  C   UNK     0     120.853  86.329  88.353  0.00  0.00     0.043 A 
HETATM    8  C   UNK     0     117.391  85.277  86.482  0.00  0.00     0.063 A 
HETATM    9  C   UNK     0     119.430  84.011  85.320  0.00  0.00     0.063 A 
HETATM   10  C   UNK     0     117.836  86.921  88.534  0.00  0.00     0.200 A 
HETATM   11  C   UNK     0     122.362  86.033  88.262  0.00  0.00     0.121 A 
HETATM   12  C   UNK     0     121.916  84.388  86.210  0.00  0.00     0.200 A 
HETATM   13  C   UNK     0     120.322  87.299  89.424  0.00  0.00     0.082 A 
HETATM   14  C   UNK     0     115.882  85.573  86.573  0.00  0.00     0.052 C 
HETATM   15  C   UNK     0     119.961  83.040  84.248  0.00  0.00     0.052 C 
HETATM   16  C   UNK     0     123.339  86.707  89.243  0.00  0.00     0.127 A 
HETATM   17  C   UNK     0     121.300  87.973  90.405  0.00  0.00     0.058 A 
HETATM   18  C   UNK     0     122.808  87.677  90.315  0.00  0.00     0.059 A 
ENDROOT
BRANCH  12  19
HETATM   19  O   UNK     0     122.448  83.418  85.138  0.00  0.00    -0.308 OA
BRANCH  19  20
HETATM   20  C   UNK     0     123.511  83.892  84.130  0.00  0.00     0.183 C 
BRANCH  20  21
HETATM   21  C   UNK     0     123.507  85.350  83.635  0.00  0.00     0.175 C 
BRANCH  21  22
HETATM   22  O   UNK     0     122.205  85.979  83.102  0.00  0.00    -0.349 OA
HETATM   23  C   UNK     0     122.237  86.865  81.843  0.00  0.00     0.174 C 
ENDBRANCH  21  22
ENDBRANCH  20  21
ENDBRANCH  19  20
ENDBRANCH  12  19
BRANCH  16  24
HETATM   24  N   UNK     0     124.848  86.410  89.152  0.00  0.00    -0.116 N 
HETATM   25  O   UNK     0     125.649  86.094  90.429  0.00  0.00    -0.532 OA
HETATM   26  O   UNK     0     125.556  86.430  87.785  0.00  0.00    -0.532 OA
ENDBRANCH  16  24
BRANCH  10  27
HETATM   27  O   UNK     0     116.328  87.217  88.625  0.00  0.00    -0.313 OA
BRANCH  27  28
HETATM   28  C   UNK     0     115.842  88.624  89.020  0.00  0.00     0.124 C 
HETATM   29  C   UNK     0     115.755  89.735  87.957  0.00  0.00     0.033 C 
HETATM   30  C   UNK     0     115.443  88.919  90.477  0.00  0.00     0.033 C 
ENDBRANCH  27  28
ENDBRANCH  10  27
TORSDOF 7
ENDMDL
