MODEL 1
REMARK VINA RESULT:      -6.9      0.000      0.000
REMARK  1 active torsions:
REMARK  status: ('A' for Active; 'I' for Inactive)
REMARK    1  A    between atoms: C_3  and  C_9 
ROOT
HETATM    1  C   UNK     0      80.441  90.701 120.035  0.00  0.00     0.013 A 
HETATM    2  N   UNK     0      79.564  88.876 121.538  0.00  0.00    -0.241 NA
HETATM    3  C   UNK     0      80.062  89.472 120.222  0.00  0.00     0.071 A 
HETATM    4  N   UNK     0      80.282  92.208 122.245  0.00  0.00    -0.223 NA
HETATM    5  C   UNK     0      80.551  91.966 120.941  0.00  0.00     0.059 A 
HETATM    6  C   UNK     0      79.748  91.189 123.254  0.00  0.00     0.232 A 
HETATM    7  C   UNK     0      80.851  90.814 118.555  0.00  0.00     0.062 A 
HETATM    8  C   UNK     0      79.418  89.640 122.911  0.00  0.00     0.146 A 
HETATM    9  C   UNK     0      81.059  93.299 120.358  0.00  0.00     0.051 A 
HETATM   10  O   UNK     0      79.512  91.676 124.687  0.00  0.00    -0.168 OA
HETATM   11  C   UNK     0      81.356  92.142 117.981  0.00  0.00     0.018 A 
HETATM   12  C   UNK     0      81.460  93.384 118.882  0.00  0.00     0.040 A 
HETATM   13 Cl   UNK     0      81.765  92.238 116.487  0.00  0.00    -0.091 Cl
ENDROOT
BRANCH   3  14
HETATM   14  C   UNK     0      80.120  88.535 119.009  0.00  0.00    -0.027 A 
HETATM   15  C   UNK     0      79.063  88.642 117.902  0.00  0.00     0.024 A 
HETATM   16  C   UNK     0      79.112  87.711 116.687  0.00  0.00     0.004 A 
HETATM   17  C   UNK     0      80.237  86.660 116.584  0.00  0.00     0.001 A 
HETATM   18  C   UNK     0      81.309  86.535 117.684  0.00  0.00     0.004 A 
HETATM   19  C   UNK     0      81.244  87.484 118.905  0.00  0.00     0.024 A 
ENDBRANCH   3  14
TORSDOF 1
ENDMDL
MODEL 2
REMARK VINA RESULT:      -6.4     54.545     57.217
REMARK  1 active torsions:
REMARK  status: ('A' for Active; 'I' for Inactive)
REMARK    1  A    between atoms: C_3  and  C_9 
ROOT
HETATM    1  C   UNK     0     113.572 126.405  92.080  0.00  0.00     0.013 A 
HETATM    2  N   UNK     0     111.816 127.747  90.867  0.00  0.00    -0.241 NA
HETATM    3  C   UNK     0     113.210 127.468  91.428  0.00  0.00     0.071 A 
HETATM    4  N   UNK     0     111.593 124.626  92.393  0.00  0.00    -0.223 NA
HETATM    5  C   UNK     0     112.854 125.096  92.533  0.00  0.00     0.059 A 
HETATM    6  C   UNK     0     110.443 125.343  91.681  0.00  0.00     0.232 A 
HETATM    7  C   UNK     0     115.060 126.591  92.433  0.00  0.00     0.062 A 
HETATM    8  C   UNK     0     110.561 126.796  90.975  0.00  0.00     0.146 A 
HETATM    9  C   UNK     0     113.625 124.016  93.316  0.00  0.00     0.051 A 
HETATM   10  O   UNK     0     109.089 124.628  91.639  0.00  0.00    -0.168 OA
HETATM   11  C   UNK     0     115.822 125.514  93.212  0.00  0.00     0.018 A 
HETATM   12  C   UNK     0     115.105 124.227  93.653  0.00  0.00     0.040 A 
HETATM   13 Cl   UNK     0     117.320 125.718  93.558  0.00  0.00    -0.091 Cl
ENDROOT
BRANCH   3  14
HETATM   14  C   UNK     0     114.281 128.544  91.202  0.00  0.00    -0.027 A 
HETATM   15  C   UNK     0     114.800 129.375  92.382  0.00  0.00     0.024 A 
HETATM   16  C   UNK     0     115.868 130.450  92.166  0.00  0.00     0.004 A 
HETATM   17  C   UNK     0     116.422 130.693  90.747  0.00  0.00     0.001 A 
HETATM   18  C   UNK     0     115.915 129.870  89.546  0.00  0.00     0.004 A 
HETATM   19  C   UNK     0     114.834 128.787  89.783  0.00  0.00     0.024 A 
ENDBRANCH   3  14
TORSDOF 1
ENDMDL
MODEL 3
REMARK VINA RESULT:      -6.3      2.739      4.021
REMARK  1 active torsions:
REMARK  status: ('A' for Active; 'I' for Inactive)
REMARK    1  A    between atoms: C_3  and  C_9 
ROOT
HETATM    1  C   UNK     0      80.680  90.656 119.976  0.00  0.00     0.013 A 
HETATM    2  N   UNK     0      81.228  91.616 117.709  0.00  0.00    -0.241 NA
HETATM    3  C   UNK     0      80.783  90.528 118.687  0.00  0.00     0.071 A 
HETATM    4  N   UNK     0      81.337  93.099 120.857  0.00  0.00    -0.223 NA
HETATM    5  C   UNK     0      80.926  91.817 120.988  0.00  0.00     0.059 A 
HETATM    6  C   UNK     0      81.698  93.794 119.542  0.00  0.00     0.232 A 
HETATM    7  C   UNK     0      80.199  89.295 120.515  0.00  0.00     0.062 A 
HETATM    8  C   UNK     0      81.643  93.091 118.083  0.00  0.00     0.146 A 
HETATM    9  C   UNK     0      80.691  91.599 122.495  0.00  0.00     0.051 A 
HETATM   10  O   UNK     0      82.142  95.259 119.621  0.00  0.00    -0.168 OA
HETATM   11  C   UNK     0      79.967  89.084 122.015  0.00  0.00     0.018 A 
HETATM   12  C   UNK     0      80.213  90.235 123.004  0.00  0.00     0.040 A 
HETATM   13 Cl   UNK     0      79.483  87.707 122.540  0.00  0.00    -0.091 Cl
ENDROOT
BRANCH   3  14
HETATM   14  C   UNK     0      80.426  89.160 118.093  0.00  0.00    -0.027 A 
HETATM   15  C   UNK     0      81.388  87.975 118.255  0.00  0.00     0.024 A 
HETATM   16  C   UNK     0      81.041  86.605 117.665  0.00  0.00     0.004 A 
HETATM   17  C   UNK     0      79.711  86.423 116.904  0.00  0.00     0.001 A 
HETATM   18  C   UNK     0      78.730  87.599 116.730  0.00  0.00     0.004 A 
HETATM   19  C   UNK     0      79.097  88.978 117.332  0.00  0.00     0.024 A 
ENDBRANCH   3  14
TORSDOF 1
ENDMDL
MODEL 4
REMARK VINA RESULT:      -6.3      3.181      5.809
REMARK  1 active torsions:
REMARK  status: ('A' for Active; 'I' for Inactive)
REMARK    1  A    between atoms: C_3  and  C_9 
ROOT
HETATM    1  C   UNK     0      81.140  90.257 120.190  0.00  0.00     0.013 A 
HETATM    2  N   UNK     0      79.693  90.398 118.129  0.00  0.00    -0.241 NA
HETATM    3  C   UNK     0      80.520  90.956 119.287  0.00  0.00     0.071 A 
HETATM    4  N   UNK     0      80.853  87.613 119.866  0.00  0.00    -0.223 NA
HETATM    5  C   UNK     0      81.307  88.733 120.475  0.00  0.00     0.059 A 
HETATM    6  C   UNK     0      79.972  87.568 118.615  0.00  0.00     0.232 A 
HETATM    7  C   UNK     0      81.825  91.264 121.132  0.00  0.00     0.062 A 
HETATM    8  C   UNK     0      79.439  88.873 117.816  0.00  0.00     0.146 A 
HETATM    9  C   UNK     0      82.142  88.253 121.678  0.00  0.00     0.051 A 
HETATM   10  O   UNK     0      79.571  86.186 118.088  0.00  0.00    -0.168 OA
HETATM   11  C   UNK     0      82.655  90.781 122.326  0.00  0.00     0.018 A 
HETATM   12  C   UNK     0      82.813  89.276 122.599  0.00  0.00     0.040 A 
HETATM   13 Cl   UNK     0      83.338  91.810 123.266  0.00  0.00    -0.091 Cl
ENDROOT
BRANCH   3  14
HETATM   14  C   UNK     0      80.629  92.483 119.394  0.00  0.00    -0.027 A 
HETATM   15  C   UNK     0      81.722  93.233 118.621  0.00  0.00     0.024 A 
HETATM   16  C   UNK     0      81.839  94.756 118.721  0.00  0.00     0.004 A 
HETATM   17  C   UNK     0      80.846  95.536 119.609  0.00  0.00     0.001 A 
HETATM   18  C   UNK     0      79.741  94.803 120.394  0.00  0.00     0.004 A 
HETATM   19  C   UNK     0      79.637  93.262 120.281  0.00  0.00     0.024 A 
ENDBRANCH   3  14
TORSDOF 1
ENDMDL
MODEL 5
REMARK VINA RESULT:      -6.3     47.564     49.163
REMARK  1 active torsions:
REMARK  status: ('A' for Active; 'I' for Inactive)
REMARK    1  A    between atoms: C_3  and  C_9 
ROOT
HETATM    1  C   UNK     0     113.534 123.493 105.367  0.00  0.00     0.013 A 
HETATM    2  N   UNK     0     114.326 124.488 103.189  0.00  0.00    -0.241 NA
HETATM    3  C   UNK     0     113.360 123.732 104.102  0.00  0.00     0.071 A 
HETATM    4  N   UNK     0     115.838 124.471 106.325  0.00  0.00    -0.223 NA
HETATM    5  C   UNK     0     114.655 123.819 106.403  0.00  0.00     0.059 A 
HETATM    6  C   UNK     0     116.425 125.116 105.066  0.00  0.00     0.232 A 
HETATM    7  C   UNK     0     112.297 122.708 105.840  0.00  0.00     0.062 A 
HETATM    8  C   UNK     0     115.710 125.116 103.613  0.00  0.00     0.146 A 
HETATM    9  C   UNK     0     114.518 123.362 107.867  0.00  0.00     0.051 A 
HETATM   10  O   UNK     0     117.786 125.807 105.201  0.00  0.00    -0.168 OA
HETATM   11  C   UNK     0     112.167 122.255 107.299  0.00  0.00     0.018 A 
HETATM   12  C   UNK     0     113.277 122.582 108.312  0.00  0.00     0.040 A 
HETATM   13 Cl   UNK     0     110.913 121.465 107.758  0.00  0.00    -0.091 Cl
ENDROOT
BRANCH   3  14
HETATM   14  C   UNK     0     112.066 123.208 103.467  0.00  0.00    -0.027 A 
HETATM   15  C   UNK     0     112.007 121.782 102.904  0.00  0.00     0.024 A 
HETATM   16  C   UNK     0     110.720 121.249 102.269  0.00  0.00     0.004 A 
HETATM   17  C   UNK     0     109.477 122.160 102.198  0.00  0.00     0.001 A 
HETATM   18  C   UNK     0     109.513 123.596 102.758  0.00  0.00     0.004 A 
HETATM   19  C   UNK     0     110.823 124.118 103.397  0.00  0.00     0.024 A 
ENDBRANCH   3  14
TORSDOF 1
ENDMDL
MODEL 6
REMARK VINA RESULT:      -6.0     42.950     44.076
REMARK  1 active torsions:
REMARK  status: ('A' for Active; 'I' for Inactive)
REMARK    1  A    between atoms: C_3  and  C_9 
ROOT
HETATM    1  C   UNK     0     122.382  98.733 111.253  0.00  0.00     0.013 A 
HETATM    2  N   UNK     0     123.135  96.384 110.730  0.00  0.00    -0.241 NA
HETATM    3  C   UNK     0     122.813  97.843 110.410  0.00  0.00     0.071 A 
HETATM    4  N   UNK     0     122.080  97.781 113.739  0.00  0.00    -0.223 NA
HETATM    5  C   UNK     0     122.040  98.729 112.775  0.00  0.00     0.059 A 
HETATM    6  C   UNK     0     122.516  96.326 113.547  0.00  0.00     0.232 A 
HETATM    7  C   UNK     0     122.207 100.041 110.460  0.00  0.00     0.062 A 
HETATM    8  C   UNK     0     123.006  95.689 112.140  0.00  0.00     0.146 A 
HETATM    9  C   UNK     0     121.538 100.013 113.463  0.00  0.00     0.051 A 
HETATM   10  O   UNK     0     122.485  95.415 114.780  0.00  0.00    -0.168 OA
HETATM   11  C   UNK     0     121.707 101.315 111.149  0.00  0.00     0.018 A 
HETATM   12  C   UNK     0     121.373 101.301 112.650  0.00  0.00     0.040 A 
HETATM   13 Cl   UNK     0     121.537 102.625 110.335  0.00  0.00    -0.091 Cl
ENDROOT
BRANCH   3  14
HETATM   14  C   UNK     0     123.016  98.300 108.959  0.00  0.00    -0.027 A 
HETATM   15  C   UNK     0     124.388  98.807 108.497  0.00  0.00     0.024 A 
HETATM   16  C   UNK     0     124.601  99.265 107.051  0.00  0.00     0.004 A 
HETATM   17  C   UNK     0     123.421  99.215 106.059  0.00  0.00     0.001 A 
HETATM   18  C   UNK     0     122.033  98.709 106.502  0.00  0.00     0.004 A 
HETATM   19  C   UNK     0     121.836  98.250 107.968  0.00  0.00     0.024 A 
ENDBRANCH   3  14
TORSDOF 1
ENDMDL
MODEL 7
REMARK VINA RESULT:      -5.8     40.059     41.561
REMARK  1 active torsions:
REMARK  status: ('A' for Active; 'I' for Inactive)
REMARK    1  A    between atoms: C_3  and  C_9 
ROOT
HETATM    1  C   UNK     0     118.647  83.400 104.369  0.00  0.00     0.013 A 
HETATM    2  N   UNK     0     118.090  83.237 106.823  0.00  0.00    -0.241 NA
HETATM    3  C   UNK     0     118.008  83.828 105.416  0.00  0.00     0.071 A 
HETATM    4  N   UNK     0     120.213  81.285 104.873  0.00  0.00    -0.223 NA
HETATM    5  C   UNK     0     119.657  82.243 104.096  0.00  0.00     0.059 A 
HETATM    6  C   UNK     0     119.956  81.083 106.368  0.00  0.00     0.232 A 
HETATM    7  C   UNK     0     118.237  84.314 103.199  0.00  0.00     0.062 A 
HETATM    8  C   UNK     0     118.964  82.000 107.264  0.00  0.00     0.146 A 
HETATM    9  C   UNK     0     120.229  82.026 102.681  0.00  0.00     0.051 A 
HETATM   10  O   UNK     0     120.693  79.930 107.058  0.00  0.00    -0.168 OA
HETATM   11  C   UNK     0     118.809  84.094 101.794  0.00  0.00     0.018 A 
HETATM   12  C   UNK     0     119.805  82.950 101.536  0.00  0.00     0.040 A 
HETATM   13 Cl   UNK     0     118.385  85.025 100.628  0.00  0.00    -0.091 Cl
ENDROOT
BRANCH   3  14
HETATM   14  C   UNK     0     117.086  85.038 105.220  0.00  0.00    -0.027 A 
HETATM   15  C   UNK     0     117.682  86.421 104.925  0.00  0.00     0.024 A 
HETATM   16  C   UNK     0     116.770  87.635 104.729  0.00  0.00     0.004 A 
HETATM   17  C   UNK     0     115.240  87.458 104.829  0.00  0.00     0.001 A 
HETATM   18  C   UNK     0     114.620  86.078 105.125  0.00  0.00     0.004 A 
HETATM   19  C   UNK     0     115.557  84.861 105.321  0.00  0.00     0.024 A 
ENDBRANCH   3  14
TORSDOF 1
ENDMDL
MODEL 8
REMARK VINA RESULT:      -5.8     19.954     22.907
REMARK  1 active torsions:
REMARK  status: ('A' for Active; 'I' for Inactive)
REMARK    1  A    between atoms: C_3  and  C_9 
ROOT
HETATM    1  C   UNK     0      87.190 111.378 126.087  0.00  0.00     0.013 A 
HETATM    2  N   UNK     0      85.130 110.976 124.689  0.00  0.00    -0.241 NA
HETATM    3  C   UNK     0      86.287 110.578 125.606  0.00  0.00     0.071 A 
HETATM    4  N   UNK     0      86.872 113.924 125.314  0.00  0.00    -0.223 NA
HETATM    5  C   UNK     0      87.479 112.907 125.968  0.00  0.00     0.059 A 
HETATM    6  C   UNK     0      85.622 113.808 124.439  0.00  0.00     0.232 A 
HETATM    7  C   UNK     0      88.130 110.514 126.948  0.00  0.00     0.062 A 
HETATM    8  C   UNK     0      84.821 112.428 124.156  0.00  0.00     0.146 A 
HETATM    9  C   UNK     0      88.682 113.531 126.701  0.00  0.00     0.051 A 
HETATM   10  O   UNK     0      85.099 115.093 123.788  0.00  0.00    -0.168 OA
HETATM   11  C   UNK     0      89.325 111.140 127.675  0.00  0.00     0.018 A 
HETATM   12  C   UNK     0      89.601 112.648 127.552  0.00  0.00     0.040 A 
HETATM   13 Cl   UNK     0      90.261 110.254 128.538  0.00  0.00    -0.091 Cl
ENDROOT
BRANCH   3  14
HETATM   14  C   UNK     0      86.390 109.098 125.997  0.00  0.00    -0.027 A 
HETATM   15  C   UNK     0      86.959 108.077 125.002  0.00  0.00     0.024 A 
HETATM   16  C   UNK     0      87.067 106.598 125.382  0.00  0.00     0.004 A 
HETATM   17  C   UNK     0      86.597 106.139 126.778  0.00  0.00     0.001 A 
HETATM   18  C   UNK     0      86.022 107.147 127.793  0.00  0.00     0.004 A 
HETATM   19  C   UNK     0      85.920 108.639 127.392  0.00  0.00     0.024 A 
ENDBRANCH   3  14
TORSDOF 1
ENDMDL
MODEL 9
REMARK VINA RESULT:      -5.8     54.296     56.896
REMARK  1 active torsions:
REMARK  status: ('A' for Active; 'I' for Inactive)
REMARK    1  A    between atoms: C_3  and  C_9 
ROOT
HETATM    1  C   UNK     0     113.588 126.891  92.099  0.00  0.00     0.013 A 
HETATM    2  N   UNK     0     113.023 125.122  93.805  0.00  0.00    -0.241 NA
HETATM    3  C   UNK     0     113.909 126.169  93.130  0.00  0.00     0.071 A 
HETATM    4  N   UNK     0     111.121 126.391  91.180  0.00  0.00    -0.223 NA
HETATM    5  C   UNK     0     112.324 127.011  91.193  0.00  0.00     0.059 A 
HETATM    6  C   UNK     0     110.662 125.307  92.158  0.00  0.00     0.232 A 
HETATM    7  C   UNK     0     114.802 127.789  91.796  0.00  0.00     0.062 A 
HETATM    8  C   UNK     0     111.558 124.725  93.376  0.00  0.00     0.146 A 
HETATM    9  C   UNK     0     112.299 128.010  90.020  0.00  0.00     0.051 A 
HETATM   10  O   UNK     0     109.253 124.737  91.963  0.00  0.00    -0.168 OA
HETATM   11  C   UNK     0     114.771 128.781  90.628  0.00  0.00     0.018 A 
HETATM   12  C   UNK     0     113.520 128.891  89.741  0.00  0.00     0.040 A 
HETATM   13 Cl   UNK     0     116.003 129.678  90.337  0.00  0.00    -0.091 Cl
ENDROOT
BRANCH   3  14
HETATM   14  C   UNK     0     115.306 126.388  93.725  0.00  0.00    -0.027 A 
HETATM   15  C   UNK     0     115.580 127.603  94.621  0.00  0.00     0.024 A 
HETATM   16  C   UNK     0     116.971 127.831  95.219  0.00  0.00     0.004 A 
HETATM   17  C   UNK     0     118.101 126.826  94.912  0.00  0.00     0.001 A 
HETATM   18  C   UNK     0     117.849 125.599  94.014  0.00  0.00     0.004 A 
HETATM   19  C   UNK     0     116.436 125.384  93.418  0.00  0.00     0.024 A 
ENDBRANCH   3  14
TORSDOF 1
ENDMDL
MODEL 10
REMARK VINA RESULT:      -5.7     46.763     47.688
REMARK  1 active torsions:
REMARK  status: ('A' for Active; 'I' for Inactive)
REMARK    1  A    between atoms: C_3  and  C_9 
ROOT
HETATM    1  C   UNK     0     110.518 123.230 104.284  0.00  0.00     0.013 A 
HETATM    2  N   UNK     0     109.624 124.542 106.244  0.00  0.00    -0.241 NA
HETATM    3  C   UNK     0     110.653 123.703 105.487  0.00  0.00     0.071 A 
HETATM    4  N   UNK     0     108.173 123.864 103.153  0.00  0.00    -0.223 NA
HETATM    5  C   UNK     0     109.398 123.290 103.200  0.00  0.00     0.059 A 
HETATM    6  C   UNK     0     107.523 124.681 104.271  0.00  0.00     0.232 A 
HETATM    7  C   UNK     0     111.812 122.459 103.967  0.00  0.00     0.062 A 
HETATM    8  C   UNK     0     108.210 124.989 105.706  0.00  0.00     0.146 A 
HETATM    9  C   UNK     0     109.590 122.588 101.842  0.00  0.00     0.051 A 
HETATM   10  O   UNK     0     106.122 125.244 104.006  0.00  0.00    -0.168 OA
HETATM   11  C   UNK     0     111.999 121.762 102.615  0.00  0.00     0.018 A 
HETATM   12  C   UNK     0     110.888 121.827 101.553  0.00  0.00     0.040 A 
HETATM   13 Cl   UNK     0     113.309 120.989 102.312  0.00  0.00    -0.091 Cl
ENDROOT
BRANCH   3  14
HETATM   14  C   UNK     0     111.967 123.389 106.213  0.00  0.00    -0.027 A 
HETATM   15  C   UNK     0     113.202 124.271 105.987  0.00  0.00     0.024 A 
HETATM   16  C   UNK     0     114.518 123.966 106.708  0.00  0.00     0.004 A 
HETATM   17  C   UNK     0     114.595 122.760 107.667  0.00  0.00     0.001 A 
HETATM   18  C   UNK     0     113.367 121.860 107.909  0.00  0.00     0.004 A 
HETATM   19  C   UNK     0     112.044 122.183 107.172  0.00  0.00     0.024 A 
ENDBRANCH   3  14
TORSDOF 1
ENDMDL
