MODEL 1
REMARK VINA RESULT:      -6.6      0.000      0.000
REMARK  0 active torsions:
REMARK  status: ('A' for Active; 'I' for Inactive)
REMARK       I    between atoms: N_8  and  C_16 
ROOT
HETATM    1  C   UNK     0      79.345  86.481 123.724  0.00  0.00     0.005 A 
HETATM    2  C   UNK     0      79.466  87.822 124.462  0.00  0.00     0.007 A 
HETATM    3  C   UNK     0      79.841  89.089 123.688  0.00  0.00     0.044 A 
HETATM    4  C   UNK     0      79.597  86.407 122.221  0.00  0.00     0.028 A 
HETATM    5  C   UNK     0      80.094  89.014 122.182  0.00  0.00     0.040 A 
HETATM    6  C   UNK     0      79.973  87.668 121.442  0.00  0.00    -0.008 A 
HETATM    7  C   UNK     0      80.183  87.366 119.936  0.00  0.00     0.024 A 
HETATM    8  N   UNK     0      80.459  90.404 121.600  0.00  0.00    -0.283 N 
HETATM    9  C   UNK     0      80.567  88.338 118.798  0.00  0.00     0.128 A 
HETATM   10  C   UNK     0      80.836  89.856 118.890  0.00  0.00     0.015 A 
HETATM   11  C   UNK     0      80.790  90.777 120.130  0.00  0.00     0.042 A 
HETATM   12  C   UNK     0      81.098  92.281 119.984  0.00  0.00     0.044 A 
HETATM   13  C   UNK     0      81.454  92.865 118.599  0.00  0.00     0.007 A 
HETATM   14  C   UNK     0      81.499  91.934 117.358  0.00  0.00     0.005 A 
HETATM   15  C   UNK     0      81.190  90.435 117.511  0.00  0.00     0.030 A 
HETATM   16  C   UNK     0      80.497  91.558 122.605  0.00  0.00     0.271 C 
HETATM   17  N   UNK     0      80.187  91.298 124.081  0.00  0.00    -0.053 NA
HETATM   18  O   UNK     0      80.846  92.971 122.134  0.00  0.00    -0.154 OA
HETATM   19  O   UNK     0      80.698  87.718 117.405  0.00  0.00    -0.191 OA
ENDROOT
TORSDOF 0
ENDMDL
MODEL 2
REMARK VINA RESULT:      -6.3     28.593     29.965
REMARK  0 active torsions:
REMARK  status: ('A' for Active; 'I' for Inactive)
REMARK       I    between atoms: N_8  and  C_16 
ROOT
HETATM    1  C   UNK     0     109.888  84.681 114.963  0.00  0.00     0.005 A 
HETATM    2  C   UNK     0     111.055  85.304 114.184  0.00  0.00     0.007 A 
HETATM    3  C   UNK     0     110.798  85.982 112.835  0.00  0.00     0.044 A 
HETATM    4  C   UNK     0     108.471  84.736 114.397  0.00  0.00     0.028 A 
HETATM    5  C   UNK     0     109.379  86.037 112.269  0.00  0.00     0.040 A 
HETATM    6  C   UNK     0     108.208  85.412 113.051  0.00  0.00    -0.008 A 
HETATM    7  C   UNK     0     106.707  85.354 112.668  0.00  0.00     0.024 A 
HETATM    8  N   UNK     0     109.344  86.765 110.900  0.00  0.00    -0.283 N 
HETATM    9  C   UNK     0     106.007  85.907 111.407  0.00  0.00     0.128 A 
HETATM   10  C   UNK     0     106.641  86.658 110.216  0.00  0.00     0.015 A 
HETATM   11  C   UNK     0     108.120  87.041 109.986  0.00  0.00     0.042 A 
HETATM   12  C   UNK     0     108.529  87.799 108.707  0.00  0.00     0.044 A 
HETATM   13  C   UNK     0     107.461  88.174 107.657  0.00  0.00     0.007 A 
HETATM   14  C   UNK     0     105.977  87.786 107.894  0.00  0.00     0.005 A 
HETATM   15  C   UNK     0     105.576  87.030 109.173  0.00  0.00     0.030 A 
HETATM   16  C   UNK     0     110.690  87.278 110.384  0.00  0.00     0.271 C 
HETATM   17  N   UNK     0     111.961  87.059 111.210  0.00  0.00    -0.053 NA
HETATM   18  O   UNK     0     110.767  88.011 109.043  0.00  0.00    -0.154 OA
HETATM   19  O   UNK     0     104.495  85.683 111.329  0.00  0.00    -0.191 OA
ENDROOT
TORSDOF 0
ENDMDL
MODEL 3
REMARK VINA RESULT:      -5.5     23.247     26.351
REMARK  0 active torsions:
REMARK  status: ('A' for Active; 'I' for Inactive)
REMARK       I    between atoms: N_8  and  C_16 
ROOT
HETATM    1  C   UNK     0      86.098  84.622  92.315  0.00  0.00     0.005 A 
HETATM    2  C   UNK     0      85.975  83.901  93.665  0.00  0.00     0.007 A 
HETATM    3  C   UNK     0      85.355  84.624  94.864  0.00  0.00     0.044 A 
HETATM    4  C   UNK     0      85.603  86.058  92.164  0.00  0.00     0.028 A 
HETATM    5  C   UNK     0      84.859  86.062  94.713  0.00  0.00     0.040 A 
HETATM    6  C   UNK     0      84.982  86.785  93.358  0.00  0.00    -0.008 A 
HETATM    7  C   UNK     0      84.550  88.227  92.985  0.00  0.00     0.024 A 
HETATM    8  N   UNK     0      84.270  86.600  96.042  0.00  0.00    -0.283 N 
HETATM    9  C   UNK     0      83.887  89.300  93.876  0.00  0.00     0.128 A 
HETATM   10  C   UNK     0      83.493  89.193  95.366  0.00  0.00     0.015 A 
HETATM   11  C   UNK     0      83.661  87.998  96.331  0.00  0.00     0.042 A 
HETATM   12  C   UNK     0      83.189  88.119  97.794  0.00  0.00     0.044 A 
HETATM   13  C   UNK     0      82.551  89.433  98.293  0.00  0.00     0.007 A 
HETATM   14  C   UNK     0      82.386  90.629  97.319  0.00  0.00     0.005 A 
HETATM   15  C   UNK     0      82.858  90.502  95.861  0.00  0.00     0.030 A 
HETATM   16  C   UNK     0      84.291  85.626  97.222  0.00  0.00     0.271 C 
HETATM   17  N   UNK     0      84.871  84.220  97.045  0.00  0.00    -0.053 NA
HETATM   18  O   UNK     0      83.734  86.057  98.581  0.00  0.00    -0.154 OA
HETATM   19  O   UNK     0      83.583  90.638  93.197  0.00  0.00    -0.191 OA
ENDROOT
TORSDOF 0
ENDMDL
MODEL 4
REMARK VINA RESULT:      -5.5     50.764     53.010
REMARK  0 active torsions:
REMARK  status: ('A' for Active; 'I' for Inactive)
REMARK       I    between atoms: N_8  and  C_16 
ROOT
HETATM    1  C   UNK     0     118.025  83.526  85.028  0.00  0.00     0.005 A 
HETATM    2  C   UNK     0     119.417  83.359  84.403  0.00  0.00     0.007 A 
HETATM    3  C   UNK     0     120.625  84.061  85.029  0.00  0.00     0.044 A 
HETATM    4  C   UNK     0     117.841  84.391  86.272  0.00  0.00     0.028 A 
HETATM    5  C   UNK     0     120.441  84.927  86.275  0.00  0.00     0.040 A 
HETATM    6  C   UNK     0     119.044  85.095  86.902  0.00  0.00    -0.008 A 
HETATM    7  C   UNK     0     118.634  85.917  88.151  0.00  0.00     0.024 A 
HETATM    8  N   UNK     0     121.787  85.541  86.741  0.00  0.00    -0.283 N 
HETATM    9  C   UNK     0     119.521  86.773  89.081  0.00  0.00     0.128 A 
HETATM   10  C   UNK     0     121.043  87.018  88.988  0.00  0.00     0.015 A 
HETATM   11  C   UNK     0     122.052  86.474  87.952  0.00  0.00     0.042 A 
HETATM   12  C   UNK     0     123.543  86.856  88.057  0.00  0.00     0.044 A 
HETATM   13  C   UNK     0     124.025  87.781  89.196  0.00  0.00     0.007 A 
HETATM   14  C   UNK     0     123.006  88.323  90.232  0.00  0.00     0.005 A 
HETATM   15  C   UNK     0     121.521  87.939  90.122  0.00  0.00     0.030 A 
HETATM   16  C   UNK     0     123.011  85.180  85.897  0.00  0.00     0.271 C 
HETATM   17  N   UNK     0     122.859  84.265  84.679  0.00  0.00    -0.053 NA
HETATM   18  O   UNK     0     124.388  85.734  86.270  0.00  0.00    -0.154 OA
HETATM   19  O   UNK     0     118.800  87.466  90.240  0.00  0.00    -0.191 OA
ENDROOT
TORSDOF 0
ENDMDL
MODEL 5
REMARK VINA RESULT:      -5.3     48.954     50.427
REMARK  0 active torsions:
REMARK  status: ('A' for Active; 'I' for Inactive)
REMARK       I    between atoms: N_8  and  C_16 
ROOT
HETATM    1  C   UNK     0     130.104  86.178 111.444  0.00  0.00     0.005 A 
HETATM    2  C   UNK     0     130.865  85.689 110.204  0.00  0.00     0.007 A 
HETATM    3  C   UNK     0     130.655  86.384 108.856  0.00  0.00     0.044 A 
HETATM    4  C   UNK     0     129.138  87.354 111.338  0.00  0.00     0.028 A 
HETATM    5  C   UNK     0     129.687  87.563 108.749  0.00  0.00     0.040 A 
HETATM    6  C   UNK     0     128.924  88.052 109.994  0.00  0.00    -0.008 A 
HETATM    7  C   UNK     0     127.906  89.216 110.113  0.00  0.00     0.024 A 
HETATM    8  N   UNK     0     129.626  88.115 107.302  0.00  0.00    -0.283 N 
HETATM    9  C   UNK     0     127.401  90.177 109.014  0.00  0.00     0.128 A 
HETATM   10  C   UNK     0     127.794  90.208 107.520  0.00  0.00     0.015 A 
HETATM   11  C   UNK     0     128.780  89.296 106.756  0.00  0.00     0.042 A 
HETATM   12  C   UNK     0     129.018  89.513 105.248  0.00  0.00     0.044 A 
HETATM   13  C   UNK     0     128.272  90.642 104.503  0.00  0.00     0.007 A 
HETATM   14  C   UNK     0     127.283  91.554 105.277  0.00  0.00     0.005 A 
HETATM   15  C   UNK     0     127.050  91.331 106.781  0.00  0.00     0.030 A 
HETATM   16  C   UNK     0     130.514  87.403 106.279  0.00  0.00     0.271 C 
HETATM   17  N   UNK     0     131.390  86.225 106.713  0.00  0.00    -0.053 NA
HETATM   18  O   UNK     0     130.528  87.869 104.821  0.00  0.00    -0.154 OA
HETATM   19  O   UNK     0     126.385  91.230 109.461  0.00  0.00    -0.191 OA
ENDROOT
TORSDOF 0
ENDMDL
MODEL 6
REMARK VINA RESULT:      -5.3     19.198     21.410
REMARK  0 active torsions:
REMARK  status: ('A' for Active; 'I' for Inactive)
REMARK       I    between atoms: N_8  and  C_16 
ROOT
HETATM    1  C   UNK     0      82.284 111.191 130.367  0.00  0.00     0.005 A 
HETATM    2  C   UNK     0      82.503 112.060 129.120  0.00  0.00     0.007 A 
HETATM    3  C   UNK     0      83.398 111.555 127.984  0.00  0.00     0.044 A 
HETATM    4  C   UNK     0      82.957 109.826 130.478  0.00  0.00     0.028 A 
HETATM    5  C   UNK     0      84.071 110.187 128.096  0.00  0.00     0.040 A 
HETATM    6  C   UNK     0      83.852 109.316 129.348  0.00  0.00    -0.008 A 
HETATM    7  C   UNK     0      84.430 107.913 129.667  0.00  0.00     0.024 A 
HETATM    8  N   UNK     0      84.928 109.874 126.843  0.00  0.00    -0.283 N 
HETATM    9  C   UNK     0      85.371 107.037 128.812  0.00  0.00     0.128 A 
HETATM   10  C   UNK     0      85.967 107.351 127.422  0.00  0.00     0.015 A 
HETATM   11  C   UNK     0      85.773 108.607 126.545  0.00  0.00     0.042 A 
HETATM   12  C   UNK     0      86.474 108.704 125.174  0.00  0.00     0.044 A 
HETATM   13  C   UNK     0      87.368 107.546 124.681  0.00  0.00     0.007 A 
HETATM   14  C   UNK     0      87.558 106.287 125.567  0.00  0.00     0.005 A 
HETATM   15  C   UNK     0      86.856 106.197 126.933  0.00  0.00     0.030 A 
HETATM   16  C   UNK     0      84.943 110.955 125.759  0.00  0.00     0.271 C 
HETATM   17  N   UNK     0      84.142 112.246 125.954  0.00  0.00    -0.053 NA
HETATM   18  O   UNK     0      85.757 110.747 124.481  0.00  0.00    -0.154 OA
HETATM   19  O   UNK     0      85.763 105.687 129.419  0.00  0.00    -0.191 OA
ENDROOT
TORSDOF 0
ENDMDL
MODEL 7
REMARK VINA RESULT:      -5.2     48.896     51.827
REMARK  0 active torsions:
REMARK  status: ('A' for Active; 'I' for Inactive)
REMARK       I    between atoms: N_8  and  C_16 
ROOT
HETATM    1  C   UNK     0     111.272 127.423 110.830  0.00  0.00     0.005 A 
HETATM    2  C   UNK     0     110.899 126.140 110.073  0.00  0.00     0.007 A 
HETATM    3  C   UNK     0     111.859 125.563 109.029  0.00  0.00     0.044 A 
HETATM    4  C   UNK     0     112.596 128.125 110.545  0.00  0.00     0.028 A 
HETATM    5  C   UNK     0     113.186 126.267 108.743  0.00  0.00     0.040 A 
HETATM    6  C   UNK     0     113.559 127.554 109.503  0.00  0.00    -0.008 A 
HETATM    7  C   UNK     0     114.838 128.420 109.374  0.00  0.00     0.024 A 
HETATM    8  N   UNK     0     114.001 125.518 107.657  0.00  0.00    -0.283 N 
HETATM    9  C   UNK     0     116.059 128.213 108.451  0.00  0.00     0.128 A 
HETATM   10  C   UNK     0     116.300 127.081 107.428  0.00  0.00     0.015 A 
HETATM   11  C   UNK     0     115.391 125.884 107.072  0.00  0.00     0.042 A 
HETATM   12  C   UNK     0     115.841 124.866 106.005  0.00  0.00     0.044 A 
HETATM   13  C   UNK     0     117.200 125.043 105.294  0.00  0.00     0.007 A 
HETATM   14  C   UNK     0     118.109 126.247 105.656  0.00  0.00     0.005 A 
HETATM   15  C   UNK     0     117.653 127.260 106.721  0.00  0.00     0.030 A 
HETATM   16  C   UNK     0     113.350 124.255 107.089  0.00  0.00     0.271 C 
HETATM   17  N   UNK     0     111.978 123.805 107.598  0.00  0.00    -0.053 NA
HETATM   18  O   UNK     0     114.070 123.441 106.011  0.00  0.00    -0.154 OA
HETATM   19  O   UNK     0     117.170 129.259 108.566  0.00  0.00    -0.191 OA
ENDROOT
TORSDOF 0
ENDMDL
MODEL 8
REMARK VINA RESULT:      -5.2     25.091     25.705
REMARK  0 active torsions:
REMARK  status: ('A' for Active; 'I' for Inactive)
REMARK       I    between atoms: N_8  and  C_16 
ROOT
HETATM    1  C   UNK     0     109.261  88.240 125.423  0.00  0.00     0.005 A 
HETATM    2  C   UNK     0     109.067  87.058 124.462  0.00  0.00     0.007 A 
HETATM    3  C   UNK     0     107.865  87.035 123.514  0.00  0.00     0.044 A 
HETATM    4  C   UNK     0     108.261  89.392 125.435  0.00  0.00     0.028 A 
HETATM    5  C   UNK     0     106.862  88.189 123.526  0.00  0.00     0.040 A 
HETATM    6  C   UNK     0     107.059  89.374 124.490  0.00  0.00    -0.008 A 
HETATM    7  C   UNK     0     106.175  90.636 124.669  0.00  0.00     0.024 A 
HETATM    8  N   UNK     0     105.729  87.965 122.492  0.00  0.00    -0.283 N 
HETATM    9  C   UNK     0     104.877  91.022 123.926  0.00  0.00     0.128 A 
HETATM   10  C   UNK     0     104.142  90.236 122.817  0.00  0.00     0.015 A 
HETATM   11  C   UNK     0     104.516  88.880 122.178  0.00  0.00     0.042 A 
HETATM   12  C   UNK     0     103.624  88.278 121.074  0.00  0.00     0.044 A 
HETATM   13  C   UNK     0     102.359  89.032 120.608  0.00  0.00     0.007 A 
HETATM   14  C   UNK     0     101.990  90.393 121.254  0.00  0.00     0.005 A 
HETATM   15  C   UNK     0     102.884  90.987 122.355  0.00  0.00     0.030 A 
HETATM   16  C   UNK     0     105.817  86.673 121.677  0.00  0.00     0.271 C 
HETATM   17  N   UNK     0     106.975  85.699 121.908  0.00  0.00    -0.053 NA
HETATM   18  O   UNK     0     104.748  86.354 120.629  0.00  0.00    -0.154 OA
HETATM   19  O   UNK     0     104.239  92.350 124.340  0.00  0.00    -0.191 OA
ENDROOT
TORSDOF 0
ENDMDL
MODEL 9
REMARK VINA RESULT:      -5.2     17.736     19.937
REMARK  0 active torsions:
REMARK  status: ('A' for Active; 'I' for Inactive)
REMARK       I    between atoms: N_8  and  C_16 
ROOT
HETATM    1  C   UNK     0      82.133 109.377 129.908  0.00  0.00     0.005 A 
HETATM    2  C   UNK     0      83.145 110.178 129.077  0.00  0.00     0.007 A 
HETATM    3  C   UNK     0      84.401 109.491 128.533  0.00  0.00     0.044 A 
HETATM    4  C   UNK     0      82.374 107.898 130.194  0.00  0.00     0.028 A 
HETATM    5  C   UNK     0      84.642 108.008 128.821  0.00  0.00     0.040 A 
HETATM    6  C   UNK     0      83.626 107.206 129.655  0.00  0.00    -0.008 A 
HETATM    7  C   UNK     0      83.671 105.710 130.062  0.00  0.00     0.024 A 
HETATM    8  N   UNK     0      85.966 107.517 128.181  0.00  0.00    -0.283 N 
HETATM    9  C   UNK     0      84.745 104.650 129.735  0.00  0.00     0.128 A 
HETATM   10  C   UNK     0      86.042 104.827 128.916  0.00  0.00     0.015 A 
HETATM   11  C   UNK     0      86.588 106.096 128.225  0.00  0.00     0.042 A 
HETATM   12  C   UNK     0      87.922 106.038 127.453  0.00  0.00     0.044 A 
HETATM   13  C   UNK     0      88.710 104.712 127.372  0.00  0.00     0.007 A 
HETATM   14  C   UNK     0      88.156 103.442 128.068  0.00  0.00     0.005 A 
HETATM   15  C   UNK     0      86.825 103.506 128.837  0.00  0.00     0.030 A 
HETATM   16  C   UNK     0      86.762 108.569 127.405  0.00  0.00     0.271 C 
HETATM   17  N   UNK     0      86.236 110.003 127.299  0.00  0.00    -0.053 NA
HETATM   18  O   UNK     0      88.084 108.188 126.734  0.00  0.00    -0.154 OA
HETATM   19  O   UNK     0      84.491 103.247 130.293  0.00  0.00    -0.191 OA
ENDROOT
TORSDOF 0
ENDMDL
MODEL 10
REMARK VINA RESULT:      -5.1     62.234     63.887
REMARK  0 active torsions:
REMARK  status: ('A' for Active; 'I' for Inactive)
REMARK       I    between atoms: N_8  and  C_16 
ROOT
HETATM    1  C   UNK     0     135.675 102.427  96.523  0.00  0.00     0.005 A 
HETATM    2  C   UNK     0     135.388 103.320  95.307  0.00  0.00     0.007 A 
HETATM    3  C   UNK     0     135.663 102.799  93.894  0.00  0.00     0.044 A 
HETATM    4  C   UNK     0     136.235 101.021  96.327  0.00  0.00     0.028 A 
HETATM    5  C   UNK     0     136.224 101.390  93.698  0.00  0.00     0.040 A 
HETATM    6  C   UNK     0     136.513 100.495  94.918  0.00  0.00    -0.008 A 
HETATM    7  C   UNK     0     137.076  99.051  94.950  0.00  0.00     0.024 A 
HETATM    8  N   UNK     0     136.428 101.066  92.196  0.00  0.00    -0.283 N 
HETATM    9  C   UNK     0     137.490  98.147  93.769  0.00  0.00     0.128 A 
HETATM   10  C   UNK     0     137.441  98.468  92.258  0.00  0.00     0.015 A 
HETATM   11  C   UNK     0     136.971  99.761  91.556  0.00  0.00     0.042 A 
HETATM   12  C   UNK     0     137.011  99.859  90.017  0.00  0.00     0.044 A 
HETATM   13  C   UNK     0     137.520  98.665  89.181  0.00  0.00     0.007 A 
HETATM   14  C   UNK     0     137.991  97.370  89.893  0.00  0.00     0.005 A 
HETATM   15  C   UNK     0     137.948  97.279  91.428  0.00  0.00     0.030 A 
HETATM   16  C   UNK     0     136.042 102.178  91.217  0.00  0.00     0.271 C 
HETATM   17  N   UNK     0     135.496 103.507  91.744  0.00  0.00    -0.053 NA
HETATM   18  O   UNK     0     136.204 101.961  89.710  0.00  0.00    -0.154 OA
HETATM   19  O   UNK     0     138.014  96.758  94.141  0.00  0.00    -0.191 OA
ENDROOT
TORSDOF 0
ENDMDL
