MODEL 1
REMARK VINA RESULT:      -5.5      0.000      0.000
REMARK  4 active torsions:
REMARK  status: ('A' for Active; 'I' for Inactive)
REMARK    1  A    between atoms: C_2  and  C_3 
REMARK    2  A    between atoms: C_3  and  C_4 
REMARK    3  A    between atoms: C_4  and  C_6 
REMARK    4  A    between atoms: C_6  and  C_7 
ROOT
HETATM    1  C   UNK     0     112.393 102.429 104.710  0.00  0.00     0.032 A 
HETATM    2  C   UNK     0     112.661 103.827 104.120  0.00  0.00     0.155 A 
HETATM    3  N   UNK     0     111.486 104.697 103.639  0.00  0.00    -0.156 NA
HETATM    4  C   UNK     0     110.951 101.902 104.817  0.00  0.00     0.069 A 
HETATM    5  C   UNK     0     109.775 102.772 104.336  0.00  0.00     0.295 A 
HETATM    6  O   UNK     0     108.332 102.245 104.443  0.00  0.00    -0.188 OA
HETATM    7  O   UNK     0     110.042 104.170 103.746  0.00  0.00    -0.210 OA
ENDROOT
BRANCH   1   8
HETATM    8  C   UNK     0     113.569 101.559 105.192  0.00  0.00     0.002 C 
BRANCH   8   9
HETATM    9  C   UNK     0     114.779 101.319 104.269  0.00  0.00     0.000 C 
HETATM   10  C   UNK     0     115.856 102.408 104.112  0.00  0.00     0.000 C 
BRANCH   9  11
HETATM   11  C   UNK     0     114.911  99.989 103.503  0.00  0.00     0.000 C 
BRANCH  11  12
HETATM   12  C   UNK     0     113.654  99.162 103.174  0.00  0.00     0.000 C 
HETATM   13  C   UNK     0     112.641  99.681 102.136  0.00  0.00     0.000 C 
ENDBRANCH  11  12
ENDBRANCH   9  11
ENDBRANCH   8   9
ENDBRANCH   1   8
TORSDOF 4
ENDMDL
MODEL 2
REMARK VINA RESULT:      -5.4      2.185      3.213
REMARK  4 active torsions:
REMARK  status: ('A' for Active; 'I' for Inactive)
REMARK    1  A    between atoms: C_2  and  C_3 
REMARK    2  A    between atoms: C_3  and  C_4 
REMARK    3  A    between atoms: C_4  and  C_6 
REMARK    4  A    between atoms: C_6  and  C_7 
ROOT
HETATM    1  C   UNK     0     109.737 103.400 104.800  0.00  0.00     0.032 A 
HETATM    2  C   UNK     0     110.324 104.653 105.474  0.00  0.00     0.155 A 
HETATM    3  N   UNK     0     109.508 105.409 106.538  0.00  0.00    -0.156 NA
HETATM    4  C   UNK     0     108.332 102.903 105.188  0.00  0.00     0.069 A 
HETATM    5  C   UNK     0     107.515 103.659 106.253  0.00  0.00     0.295 A 
HETATM    6  O   UNK     0     106.110 103.162 106.642  0.00  0.00    -0.188 OA
HETATM    7  O   UNK     0     108.103 104.912 106.928  0.00  0.00    -0.210 OA
ENDROOT
BRANCH   1   8
HETATM    8  C   UNK     0     110.554 102.643 103.735  0.00  0.00     0.002 C 
BRANCH   8   9
HETATM    9  C   UNK     0     111.798 101.836 104.150  0.00  0.00     0.000 C 
HETATM   10  C   UNK     0     111.792 101.033 105.464  0.00  0.00     0.000 C 
BRANCH   9  11
HETATM   11  C   UNK     0     113.047 101.831 103.250  0.00  0.00     0.000 C 
BRANCH  11  12
HETATM   12  C   UNK     0     114.419 101.450 103.838  0.00  0.00     0.000 C 
HETATM   13  C   UNK     0     114.988 100.037 103.613  0.00  0.00     0.000 C 
ENDBRANCH  11  12
ENDBRANCH   9  11
ENDBRANCH   8   9
ENDBRANCH   1   8
TORSDOF 4
ENDMDL
MODEL 3
REMARK VINA RESULT:      -5.1     34.598     36.331
REMARK  4 active torsions:
REMARK  status: ('A' for Active; 'I' for Inactive)
REMARK    1  A    between atoms: C_2  and  C_3 
REMARK    2  A    between atoms: C_3  and  C_4 
REMARK    3  A    between atoms: C_4  and  C_6 
REMARK    4  A    between atoms: C_6  and  C_7 
ROOT
HETATM    1  C   UNK     0      80.908  92.898 120.639  0.00  0.00     0.032 A 
HETATM    2  C   UNK     0      82.007  92.570 121.667  0.00  0.00     0.155 A 
HETATM    3  N   UNK     0      83.307  93.394 121.694  0.00  0.00    -0.156 NA
HETATM    4  C   UNK     0      81.110  94.050 119.638  0.00  0.00     0.069 A 
HETATM    5  C   UNK     0      82.411  94.875 119.665  0.00  0.00     0.295 A 
HETATM    6  O   UNK     0      82.613  96.027 118.663  0.00  0.00    -0.188 OA
HETATM    7  O   UNK     0      83.509  94.547 120.693  0.00  0.00    -0.210 OA
ENDROOT
BRANCH   1   8
HETATM    8  C   UNK     0      79.608  92.073 120.612  0.00  0.00     0.002 C 
BRANCH   8   9
HETATM    9  C   UNK     0      79.570  90.718 119.880  0.00  0.00     0.000 C 
HETATM   10  C   UNK     0      79.526  89.408 120.688  0.00  0.00     0.000 C 
BRANCH   9  11
HETATM   11  C   UNK     0      79.576  90.675 118.341  0.00  0.00     0.000 C 
BRANCH  11  12
HETATM   12  C   UNK     0      80.901  90.480 117.581  0.00  0.00     0.000 C 
HETATM   13  C   UNK     0      81.639  91.698 116.994  0.00  0.00     0.000 C 
ENDBRANCH  11  12
ENDBRANCH   9  11
ENDBRANCH   8   9
ENDBRANCH   1   8
TORSDOF 4
ENDMDL
MODEL 4
REMARK VINA RESULT:      -5.0     20.487     21.363
REMARK  4 active torsions:
REMARK  status: ('A' for Active; 'I' for Inactive)
REMARK    1  A    between atoms: C_2  and  C_3 
REMARK    2  A    between atoms: C_3  and  C_4 
REMARK    3  A    between atoms: C_4  and  C_6 
REMARK    4  A    between atoms: C_6  and  C_7 
ROOT
HETATM    1  C   UNK     0     110.060 122.648 106.062  0.00  0.00     0.032 A 
HETATM    2  C   UNK     0     109.145 123.884 106.138  0.00  0.00     0.155 A 
HETATM    3  N   UNK     0     108.600 124.520 104.846  0.00  0.00    -0.156 NA
HETATM    4  C   UNK     0     110.430 122.047 104.694  0.00  0.00     0.069 A 
HETATM    5  C   UNK     0     109.885 122.682 103.401  0.00  0.00     0.295 A 
HETATM    6  O   UNK     0     110.255 122.081 102.032  0.00  0.00    -0.188 OA
HETATM    7  O   UNK     0     108.970 123.918 103.477  0.00  0.00    -0.210 OA
ENDROOT
BRANCH   1   8
HETATM    8  C   UNK     0     110.605 122.013 107.355  0.00  0.00     0.002 C 
BRANCH   8   9
HETATM    9  C   UNK     0     111.877 122.578 108.015  0.00  0.00     0.000 C 
HETATM   10  C   UNK     0     111.767 123.710 109.054  0.00  0.00     0.000 C 
BRANCH   9  11
HETATM   11  C   UNK     0     113.257 122.013 107.636  0.00  0.00     0.000 C 
BRANCH  11  12
HETATM   12  C   UNK     0     114.529 122.836 107.913  0.00  0.00     0.000 C 
HETATM   13  C   UNK     0     115.100 123.762 106.824  0.00  0.00     0.000 C 
ENDBRANCH  11  12
ENDBRANCH   9  11
ENDBRANCH   8   9
ENDBRANCH   1   8
TORSDOF 4
ENDMDL
MODEL 5
REMARK VINA RESULT:      -4.9     35.421     37.445
REMARK  4 active torsions:
REMARK  status: ('A' for Active; 'I' for Inactive)
REMARK    1  A    between atoms: C_2  and  C_3 
REMARK    2  A    between atoms: C_3  and  C_4 
REMARK    3  A    between atoms: C_4  and  C_6 
REMARK    4  A    between atoms: C_6  and  C_7 
ROOT
HETATM    1  C   UNK     0      80.362  89.387 118.862  0.00  0.00     0.032 A 
HETATM    2  C   UNK     0      81.019  89.831 120.183  0.00  0.00     0.155 A 
HETATM    3  N   UNK     0      81.903  91.091 120.217  0.00  0.00    -0.156 NA
HETATM    4  C   UNK     0      80.589  90.203 117.577  0.00  0.00     0.069 A 
HETATM    5  C   UNK     0      81.473  91.464 117.611  0.00  0.00     0.295 A 
HETATM    6  O   UNK     0      81.701  92.281 116.325  0.00  0.00    -0.188 OA
HETATM    7  O   UNK     0      82.130  91.908 118.931  0.00  0.00    -0.210 OA
ENDROOT
BRANCH   1   8
HETATM    8  C   UNK     0      79.478  88.126 118.828  0.00  0.00     0.002 C 
BRANCH   8   9
HETATM    9  C   UNK     0      79.516  87.192 117.604  0.00  0.00     0.000 C 
HETATM   10  C   UNK     0      80.833  86.503 117.203  0.00  0.00     0.000 C 
BRANCH   9  11
HETATM   11  C   UNK     0      78.237  86.947 116.783  0.00  0.00     0.000 C 
BRANCH  11  12
HETATM   12  C   UNK     0      77.739  88.020 115.796  0.00  0.00     0.000 C 
HETATM   13  C   UNK     0      77.355  87.625 114.358  0.00  0.00     0.000 C 
ENDBRANCH  11  12
ENDBRANCH   9  11
ENDBRANCH   8   9
ENDBRANCH   1   8
TORSDOF 4
ENDMDL
MODEL 6
REMARK VINA RESULT:      -4.9      9.430     10.941
REMARK  4 active torsions:
REMARK  status: ('A' for Active; 'I' for Inactive)
REMARK    1  A    between atoms: C_2  and  C_3 
REMARK    2  A    between atoms: C_3  and  C_4 
REMARK    3  A    between atoms: C_4  and  C_6 
REMARK    4  A    between atoms: C_6  and  C_7 
ROOT
HETATM    1  C   UNK     0     121.179  97.546 105.267  0.00  0.00     0.032 A 
HETATM    2  C   UNK     0     122.094  97.051 104.131  0.00  0.00     0.155 A 
HETATM    3  N   UNK     0     121.571  96.019 103.116  0.00  0.00    -0.156 NA
HETATM    4  C   UNK     0     119.742  97.009 105.387  0.00  0.00     0.069 A 
HETATM    5  C   UNK     0     119.218  95.976 104.371  0.00  0.00     0.295 A 
HETATM    6  O   UNK     0     117.780  95.438 104.491  0.00  0.00    -0.188 OA
HETATM    7  O   UNK     0     120.133  95.481 103.236  0.00  0.00    -0.210 OA
ENDROOT
BRANCH   1   8
HETATM    8  C   UNK     0     121.703  98.579 106.282  0.00  0.00     0.002 C 
BRANCH   8   9
HETATM    9  C   UNK     0     122.223  98.114 107.655  0.00  0.00     0.000 C 
HETATM   10  C   UNK     0     123.576  97.385 107.759  0.00  0.00     0.000 C 
BRANCH   9  11
HETATM   11  C   UNK     0     121.391  98.378 108.923  0.00  0.00     0.000 C 
BRANCH  11  12
HETATM   12  C   UNK     0     122.003  99.169 110.095  0.00  0.00     0.000 C 
HETATM   13  C   UNK     0     121.767 100.687 110.205  0.00  0.00     0.000 C 
ENDBRANCH  11  12
ENDBRANCH   9  11
ENDBRANCH   8   9
ENDBRANCH   1   8
TORSDOF 4
ENDMDL
MODEL 7
REMARK VINA RESULT:      -4.8     30.672     31.921
REMARK  4 active torsions:
REMARK  status: ('A' for Active; 'I' for Inactive)
REMARK    1  A    between atoms: C_2  and  C_3 
REMARK    2  A    between atoms: C_3  and  C_4 
REMARK    3  A    between atoms: C_4  and  C_6 
REMARK    4  A    between atoms: C_6  and  C_7 
ROOT
HETATM    1  C   UNK     0      80.598 103.164 107.698  0.00  0.00     0.032 A 
HETATM    2  C   UNK     0      79.478 103.451 106.681  0.00  0.00     0.155 A 
HETATM    3  N   UNK     0      79.609 104.636 105.706  0.00  0.00    -0.156 NA
HETATM    4  C   UNK     0      81.848 104.061 107.741  0.00  0.00     0.069 A 
HETATM    5  C   UNK     0      81.980 105.246 106.766  0.00  0.00     0.295 A 
HETATM    6  O   UNK     0      83.231 106.144 106.808  0.00  0.00    -0.188 OA
HETATM    7  O   UNK     0      80.860 105.533 105.748  0.00  0.00    -0.210 OA
ENDROOT
BRANCH   1   8
HETATM    8  C   UNK     0      80.467 101.979 108.673  0.00  0.00     0.002 C 
BRANCH   8   9
HETATM    9  C   UNK     0      81.059 100.606 108.301  0.00  0.00     0.000 C 
HETATM   10  C   UNK     0      82.285 100.066 109.061  0.00  0.00     0.000 C 
BRANCH   9  11
HETATM   11  C   UNK     0      80.426  99.775 107.171  0.00  0.00     0.000 C 
BRANCH  11  12
HETATM   12  C   UNK     0      79.876  98.367 107.466  0.00  0.00     0.000 C 
HETATM   13  C   UNK     0      79.234  98.061 108.833  0.00  0.00     0.000 C 
ENDBRANCH  11  12
ENDBRANCH   9  11
ENDBRANCH   8   9
ENDBRANCH   1   8
TORSDOF 4
ENDMDL
MODEL 8
REMARK VINA RESULT:      -4.6     18.990     20.413
REMARK  4 active torsions:
REMARK  status: ('A' for Active; 'I' for Inactive)
REMARK    1  A    between atoms: C_2  and  C_3 
REMARK    2  A    between atoms: C_3  and  C_4 
REMARK    3  A    between atoms: C_4  and  C_6 
REMARK    4  A    between atoms: C_6  and  C_7 
ROOT
HETATM    1  C   UNK     0     104.323  84.686 108.746  0.00  0.00     0.032 A 
HETATM    2  C   UNK     0     104.677  85.323 110.102  0.00  0.00     0.155 A 
HETATM    3  N   UNK     0     105.363  86.701 110.150  0.00  0.00    -0.156 NA
HETATM    4  C   UNK     0     104.655  85.426 107.437  0.00  0.00     0.069 A 
HETATM    5  C   UNK     0     105.340  86.804 107.484  0.00  0.00     0.295 A 
HETATM    6  O   UNK     0     105.672  87.545 106.175  0.00  0.00    -0.188 OA
HETATM    7  O   UNK     0     105.695  87.442 108.841  0.00  0.00    -0.210 OA
ENDROOT
BRANCH   1   8
HETATM    8  C   UNK     0     103.637  83.308 108.698  0.00  0.00     0.002 C 
BRANCH   8   9
HETATM    9  C   UNK     0     102.109  83.213 108.530  0.00  0.00     0.000 C 
HETATM   10  C   UNK     0     101.473  83.431 107.144  0.00  0.00     0.000 C 
BRANCH   9  11
HETATM   11  C   UNK     0     101.219  82.900 109.746  0.00  0.00     0.000 C 
BRANCH  11  12
HETATM   12  C   UNK     0     101.830  82.864 111.159  0.00  0.00     0.000 C 
HETATM   13  C   UNK     0     101.002  83.333 112.369  0.00  0.00     0.000 C 
ENDBRANCH  11  12
ENDBRANCH   9  11
ENDBRANCH   8   9
ENDBRANCH   1   8
TORSDOF 4
ENDMDL
MODEL 9
REMARK VINA RESULT:      -4.6     35.630     37.190
REMARK  4 active torsions:
REMARK  status: ('A' for Active; 'I' for Inactive)
REMARK    1  A    between atoms: C_2  and  C_3 
REMARK    2  A    between atoms: C_3  and  C_4 
REMARK    3  A    between atoms: C_4  and  C_6 
REMARK    4  A    between atoms: C_6  and  C_7 
ROOT
HETATM    1  C   UNK     0      80.252  91.395 118.915  0.00  0.00     0.032 A 
HETATM    2  C   UNK     0      81.407  92.230 118.332  0.00  0.00     0.155 A 
HETATM    3  N   UNK     0      82.169  93.223 119.229  0.00  0.00    -0.156 NA
HETATM    4  C   UNK     0      79.858  91.552 120.395  0.00  0.00     0.069 A 
HETATM    5  C   UNK     0      80.620  92.545 121.293  0.00  0.00     0.295 A 
HETATM    6  O   UNK     0      80.226  92.703 122.774  0.00  0.00    -0.188 OA
HETATM    7  O   UNK     0      81.775  93.380 120.710  0.00  0.00    -0.210 OA
ENDROOT
BRANCH   1   8
HETATM    8  C   UNK     0      79.490  90.402 118.017  0.00  0.00     0.002 C 
BRANCH   8   9
HETATM    9  C   UNK     0      80.000  88.957 117.861  0.00  0.00     0.000 C 
HETATM   10  C   UNK     0      81.235  88.487 118.652  0.00  0.00     0.000 C 
BRANCH   9  11
HETATM   11  C   UNK     0      79.275  87.983 116.915  0.00  0.00     0.000 C 
BRANCH  11  12
HETATM   12  C   UNK     0      80.058  86.843 116.236  0.00  0.00     0.000 C 
HETATM   13  C   UNK     0      79.459  86.118 115.015  0.00  0.00     0.000 C 
ENDBRANCH  11  12
ENDBRANCH   9  11
ENDBRANCH   8   9
ENDBRANCH   1   8
TORSDOF 4
ENDMDL
MODEL 10
REMARK VINA RESULT:      -4.6     10.401     11.749
REMARK  4 active torsions:
REMARK  status: ('A' for Active; 'I' for Inactive)
REMARK    1  A    between atoms: C_2  and  C_3 
REMARK    2  A    between atoms: C_3  and  C_4 
REMARK    3  A    between atoms: C_4  and  C_6 
REMARK    4  A    between atoms: C_6  and  C_7 
ROOT
HETATM    1  C   UNK     0     121.849  98.230 107.242  0.00  0.00     0.032 A 
HETATM    2  C   UNK     0     123.206  98.858 106.875  0.00  0.00     0.155 A 
HETATM    3  N   UNK     0     123.699  98.829 105.417  0.00  0.00    -0.156 NA
HETATM    4  C   UNK     0     120.984  97.573 106.151  0.00  0.00     0.069 A 
HETATM    5  C   UNK     0     121.476  97.544 104.692  0.00  0.00     0.295 A 
HETATM    6  O   UNK     0     120.611  96.888 103.600  0.00  0.00    -0.188 OA
HETATM    7  O   UNK     0     122.833  98.172 104.325  0.00  0.00    -0.210 OA
ENDROOT
BRANCH   1   8
HETATM    8  C   UNK     0     121.357  98.259 108.702  0.00  0.00     0.002 C 
BRANCH   8   9
HETATM    9  C   UNK     0     122.375  98.301 109.857  0.00  0.00     0.000 C 
HETATM   10  C   UNK     0     123.161  97.033 110.237  0.00  0.00     0.000 C 
BRANCH   9  11
HETATM   11  C   UNK     0     122.606  99.612 110.631  0.00  0.00     0.000 C 
BRANCH  11  12
HETATM   12  C   UNK     0     121.532 100.716 110.614  0.00  0.00     0.000 C 
HETATM   13  C   UNK     0     121.868 102.108 110.047  0.00  0.00     0.000 C 
ENDBRANCH  11  12
ENDBRANCH   9  11
ENDBRANCH   8   9
ENDBRANCH   1   8
TORSDOF 4
ENDMDL
