MODEL 1
REMARK VINA RESULT:      -7.8      0.000      0.000
REMARK  0 active torsions:
REMARK  status: ('A' for Active; 'I' for Inactive)
ROOT
HETATM    1  O   UNK     0     102.634  84.528 105.643  0.00  0.00    -0.304 OA
HETATM    2  O   UNK     0     106.946  87.813 105.681  0.00  0.00    -0.152 OA
HETATM    3  N   UNK     0     105.602  86.352 107.576  0.00  0.00     0.418 N 
HETATM    4  N   UNK     0     104.745  86.233 105.239  0.00  0.00     0.440 N 
HETATM    5  C   UNK     0     104.377  85.419 107.566  0.00  0.00     0.326 A 
HETATM    6  C   UNK     0     104.537  85.194 109.080  0.00  0.00    -0.009 A 
HETATM    7  C   UNK     0     103.261  84.462 108.023  0.00  0.00     0.031 A 
HETATM    8  C   UNK     0     103.848  85.346 106.121  0.00  0.00     0.424 A 
HETATM    9  C   UNK     0     105.830  86.856 106.139  0.00  0.00     0.663 A 
HETATM   10  C   UNK     0     103.871  84.421 110.234  0.00  0.00    -0.032 A 
HETATM   11  C   UNK     0     102.245  83.919 107.001  0.00  0.00     0.072 A 
HETATM   12  C   UNK     0     105.770  86.073 109.354  0.00  0.00     0.024 A 
HETATM   13  C   UNK     0     103.162  84.047 109.503  0.00  0.00    -0.027 A 
HETATM   14  C   UNK     0     101.129  82.962 107.460  0.00  0.00     0.051 A 
HETATM   15  C   UNK     0     104.439  84.528 111.661  0.00  0.00     0.025 A 
HETATM   16  C   UNK     0     106.338  86.180 110.781  0.00  0.00     0.005 A 
HETATM   17  C   UNK     0     102.046  83.090 109.961  0.00  0.00     0.026 A 
HETATM   18  C   UNK     0     101.030  82.547 108.940  0.00  0.00     0.011 A 
HETATM   19  C   UNK     0     105.673  85.408 111.935  0.00  0.00     0.005 A 
ENDROOT
TORSDOF 0
ENDMDL
MODEL 2
REMARK VINA RESULT:      -7.7     11.564     14.125
REMARK  0 active torsions:
REMARK  status: ('A' for Active; 'I' for Inactive)
ROOT
HETATM    1  O   UNK     0      89.108  78.613 105.470  0.00  0.00    -0.304 OA
HETATM    2  O   UNK     0      93.801  78.806 102.763  0.00  0.00    -0.152 OA
HETATM    3  N   UNK     0      92.607  80.352 104.690  0.00  0.00     0.418 N 
HETATM    4  N   UNK     0      91.347  78.352 103.904  0.00  0.00     0.440 N 
HETATM    5  C   UNK     0      91.274  80.298 105.459  0.00  0.00     0.326 A 
HETATM    6  C   UNK     0      91.661  81.580 106.219  0.00  0.00    -0.009 A 
HETATM    7  C   UNK     0      90.126  80.642 106.425  0.00  0.00     0.031 A 
HETATM    8  C   UNK     0      90.495  79.062 104.973  0.00  0.00     0.424 A 
HETATM    9  C   UNK     0      92.652  79.150 103.729  0.00  0.00     0.663 A 
HETATM   10  C   UNK     0      91.099  82.528 107.296  0.00  0.00    -0.032 A 
HETATM   11  C   UNK     0      88.877  79.743 106.488  0.00  0.00     0.072 A 
HETATM   12  C   UNK     0      93.040  81.857 105.594  0.00  0.00     0.024 A 
HETATM   13  C   UNK     0      90.226  81.885 107.329  0.00  0.00    -0.027 A 
HETATM   14  C   UNK     0      87.728  80.088 107.455  0.00  0.00     0.051 A 
HETATM   15  C   UNK     0      91.918  83.751 107.747  0.00  0.00     0.025 A 
HETATM   16  C   UNK     0      93.859  83.081 106.045  0.00  0.00     0.005 A 
HETATM   17  C   UNK     0      89.077  82.229 108.295  0.00  0.00     0.026 A 
HETATM   18  C   UNK     0      87.829  81.331 108.358  0.00  0.00     0.011 A 
HETATM   19  C   UNK     0      93.298  84.028 107.121  0.00  0.00     0.005 A 
ENDROOT
TORSDOF 0
ENDMDL
MODEL 3
REMARK VINA RESULT:      -7.6      1.756      3.327
REMARK  0 active torsions:
REMARK  status: ('A' for Active; 'I' for Inactive)
ROOT
HETATM    1  O   UNK     0     102.232  83.577 107.753  0.00  0.00    -0.304 OA
HETATM    2  O   UNK     0     103.623  85.613 102.926  0.00  0.00    -0.152 OA
HETATM    3  N   UNK     0     104.513  85.942 105.500  0.00  0.00     0.418 N 
HETATM    4  N   UNK     0     102.620  84.361 105.152  0.00  0.00     0.440 N 
HETATM    5  C   UNK     0     104.119  85.364 106.871  0.00  0.00     0.326 A 
HETATM    6  C   UNK     0     105.221  86.205 107.542  0.00  0.00    -0.009 A 
HETATM    7  C   UNK     0     104.083  85.074 108.383  0.00  0.00     0.031 A 
HETATM    8  C   UNK     0     102.949  84.387 106.656  0.00  0.00     0.424 A 
HETATM    9  C   UNK     0     103.588  85.323 104.437  0.00  0.00     0.663 A 
HETATM   10  C   UNK     0     105.811  86.476 108.939  0.00  0.00    -0.032 A 
HETATM   11  C   UNK     0     103.052  84.082 108.953  0.00  0.00     0.072 A 
HETATM   12  C   UNK     0     105.801  86.920 106.309  0.00  0.00     0.024 A 
HETATM   13  C   UNK     0     105.079  85.775 109.325  0.00  0.00    -0.027 A 
HETATM   14  C   UNK     0     103.017  83.792 110.465  0.00  0.00     0.051 A 
HETATM   15  C   UNK     0     106.982  87.464 109.101  0.00  0.00     0.025 A 
HETATM   16  C   UNK     0     106.972  87.907 106.471  0.00  0.00     0.005 A 
HETATM   17  C   UNK     0     105.044  85.485 110.837  0.00  0.00     0.026 A 
HETATM   18  C   UNK     0     104.013  84.493 111.407  0.00  0.00     0.011 A 
HETATM   19  C   UNK     0     107.562  88.179 107.867  0.00  0.00     0.005 A 
ENDROOT
TORSDOF 0
ENDMDL
MODEL 4
REMARK VINA RESULT:      -7.2      2.229      4.698
REMARK  0 active torsions:
REMARK  status: ('A' for Active; 'I' for Inactive)
ROOT
HETATM    1  O   UNK     0     103.960  85.749 104.176  0.00  0.00    -0.304 OA
HETATM    2  O   UNK     0      99.673  82.443 103.907  0.00  0.00    -0.152 OA
HETATM    3  N   UNK     0     101.306  83.343 105.920  0.00  0.00     0.418 N 
HETATM    4  N   UNK     0     101.794  84.159 103.617  0.00  0.00     0.440 N 
HETATM    5  C   UNK     0     102.524  84.282 105.996  0.00  0.00     0.326 A 
HETATM    6  C   UNK     0     102.602  84.056 107.517  0.00  0.00    -0.009 A 
HETATM    7  C   UNK     0     103.707  85.105 106.539  0.00  0.00     0.031 A 
HETATM    8  C   UNK     0     102.826  84.786 104.573  0.00  0.00     0.424 A 
HETATM    9  C   UNK     0     100.855  83.267 104.450  0.00  0.00     0.663 A 
HETATM   10  C   UNK     0     103.445  84.487 108.732  0.00  0.00    -0.032 A 
HETATM   11  C   UNK     0     104.559  85.954 105.577  0.00  0.00     0.072 A 
HETATM   12  C   UNK     0     101.417  83.092 107.707  0.00  0.00     0.024 A 
HETATM   13  C   UNK     0     104.037  85.080 108.043  0.00  0.00    -0.027 A 
HETATM   14  C   UNK     0     105.742  86.778 106.121  0.00  0.00     0.051 A 
HETATM   15  C   UNK     0     103.103  83.954 110.136  0.00  0.00     0.025 A 
HETATM   16  C   UNK     0     101.074  82.559 109.110  0.00  0.00     0.005 A 
HETATM   17  C   UNK     0     105.219  85.904 108.585  0.00  0.00     0.026 A 
HETATM   18  C   UNK     0     106.072  86.753 107.625  0.00  0.00     0.011 A 
HETATM   19  C   UNK     0     101.917  82.989 110.324  0.00  0.00     0.005 A 
ENDROOT
TORSDOF 0
ENDMDL
MODEL 5
REMARK VINA RESULT:      -7.1      2.667      4.428
REMARK  0 active torsions:
REMARK  status: ('A' for Active; 'I' for Inactive)
ROOT
HETATM    1  O   UNK     0     101.436  83.010 107.237  0.00  0.00    -0.304 OA
HETATM    2  O   UNK     0     101.901  82.391 112.603  0.00  0.00    -0.152 OA
HETATM    3  N   UNK     0     103.201  83.882 110.701  0.00  0.00     0.418 N 
HETATM    4  N   UNK     0     101.344  82.419 109.916  0.00  0.00     0.440 N 
HETATM    5  C   UNK     0     103.069  84.058 109.178  0.00  0.00     0.326 A 
HETATM    6  C   UNK     0     104.233  85.066 109.194  0.00  0.00    -0.009 A 
HETATM    7  C   UNK     0     103.303  84.537 107.733  0.00  0.00     0.031 A 
HETATM    8  C   UNK     0     101.921  83.154 108.692  0.00  0.00     0.424 A 
HETATM    9  C   UNK     0     102.135  82.870 111.158  0.00  0.00     0.663 A 
HETATM   10  C   UNK     0     105.040  85.952 108.225  0.00  0.00    -0.032 A 
HETATM   11  C   UNK     0     102.426  83.993 106.589  0.00  0.00     0.072 A 
HETATM   12  C   UNK     0     104.565  85.069 110.697  0.00  0.00     0.024 A 
HETATM   13  C   UNK     0     104.414  85.560 107.431  0.00  0.00    -0.027 A 
HETATM   14  C   UNK     0     102.661  84.472 105.145  0.00  0.00     0.051 A 
HETATM   15  C   UNK     0     106.179  86.839 108.761  0.00  0.00     0.025 A 
HETATM   16  C   UNK     0     105.704  85.956 111.233  0.00  0.00     0.005 A 
HETATM   17  C   UNK     0     104.648  86.038 105.986  0.00  0.00     0.026 A 
HETATM   18  C   UNK     0     103.772  85.494 104.843  0.00  0.00     0.011 A 
HETATM   19  C   UNK     0     106.511  86.841 110.265  0.00  0.00     0.005 A 
ENDROOT
TORSDOF 0
ENDMDL
MODEL 6
REMARK VINA RESULT:      -6.9     10.735     12.902
REMARK  0 active torsions:
REMARK  status: ('A' for Active; 'I' for Inactive)
ROOT
HETATM    1  O   UNK     0      91.810  78.513 103.705  0.00  0.00    -0.304 OA
HETATM    2  O   UNK     0      96.577  81.030 103.131  0.00  0.00    -0.152 OA
HETATM    3  N   UNK     0      94.325  81.459 104.639  0.00  0.00     0.418 N 
HETATM    4  N   UNK     0      94.314  79.477 103.130  0.00  0.00     0.440 N 
HETATM    5  C   UNK     0      92.971  80.744 104.803  0.00  0.00     0.326 A 
HETATM    6  C   UNK     0      92.539  81.800 105.836  0.00  0.00    -0.009 A 
HETATM    7  C   UNK     0      91.550  80.391 105.277  0.00  0.00     0.031 A 
HETATM    8  C   UNK     0      92.965  79.519 103.870  0.00  0.00     0.424 A 
HETATM    9  C   UNK     0      95.155  80.676 103.606  0.00  0.00     0.663 A 
HETATM   10  C   UNK     0      91.337  82.150 106.733  0.00  0.00    -0.032 A 
HETATM   11  C   UNK     0      90.833  79.153 104.706  0.00  0.00     0.072 A 
HETATM   12  C   UNK     0      93.797  82.688 105.856  0.00  0.00     0.024 A 
HETATM   13  C   UNK     0      90.845  81.275 106.322  0.00  0.00    -0.027 A 
HETATM   14  C   UNK     0      89.411  78.800 105.181  0.00  0.00     0.051 A 
HETATM   15  C   UNK     0      91.393  83.386 107.649  0.00  0.00     0.025 A 
HETATM   16  C   UNK     0      93.853  83.924 106.771  0.00  0.00     0.005 A 
HETATM   17  C   UNK     0      89.423  80.921 106.797  0.00  0.00     0.026 A 
HETATM   18  C   UNK     0      88.706  79.684 106.227  0.00  0.00     0.011 A 
HETATM   19  C   UNK     0      92.652  84.274 107.668  0.00  0.00     0.005 A 
ENDROOT
TORSDOF 0
ENDMDL
MODEL 7
REMARK VINA RESULT:      -6.7     12.020     14.002
REMARK  0 active torsions:
REMARK  status: ('A' for Active; 'I' for Inactive)
ROOT
HETATM    1  O   UNK     0      90.517  78.034 105.971  0.00  0.00    -0.304 OA
HETATM    2  O   UNK     0      87.236  81.614 108.380  0.00  0.00    -0.152 OA
HETATM    3  N   UNK     0      89.819  81.665 107.455  0.00  0.00     0.418 N 
HETATM    4  N   UNK     0      88.565  79.529 107.189  0.00  0.00     0.440 N 
HETATM    5  C   UNK     0      90.751  80.649 106.770  0.00  0.00     0.326 A 
HETATM    6  C   UNK     0      91.868  81.707 106.721  0.00  0.00    -0.009 A 
HETATM    7  C   UNK     0      91.983  80.008 106.104  0.00  0.00     0.031 A 
HETATM    8  C   UNK     0      89.976  79.328 106.606  0.00  0.00     0.424 A 
HETATM    9  C   UNK     0      88.468  80.974 107.714  0.00  0.00     0.663 A 
HETATM   10  C   UNK     0      93.324  81.863 106.243  0.00  0.00    -0.032 A 
HETATM   11  C   UNK     0      91.927  78.544 105.629  0.00  0.00     0.072 A 
HETATM   12  C   UNK     0      91.145  82.892 107.386  0.00  0.00     0.024 A 
HETATM   13  C   UNK     0      93.270  80.832 105.913  0.00  0.00    -0.027 A 
HETATM   14  C   UNK     0      93.160  77.904 104.962  0.00  0.00     0.051 A 
HETATM   15  C   UNK     0      94.056  83.205 106.430  0.00  0.00     0.025 A 
HETATM   16  C   UNK     0      91.877  84.234 107.573  0.00  0.00     0.005 A 
HETATM   17  C   UNK     0      94.502  80.191 105.247  0.00  0.00     0.026 A 
HETATM   18  C   UNK     0      94.447  78.728 104.771  0.00  0.00     0.011 A 
HETATM   19  C   UNK     0      93.332  84.391 107.095  0.00  0.00     0.005 A 
ENDROOT
TORSDOF 0
ENDMDL
MODEL 8
REMARK VINA RESULT:      -6.7     11.892     14.010
REMARK  0 active torsions:
REMARK  status: ('A' for Active; 'I' for Inactive)
ROOT
HETATM    1  O   UNK     0      90.061  82.193 107.937  0.00  0.00    -0.304 OA
HETATM    2  O   UNK     0      88.798  77.471 105.593  0.00  0.00    -0.152 OA
HETATM    3  N   UNK     0      90.877  79.248 105.380  0.00  0.00     0.418 N 
HETATM    4  N   UNK     0      89.069  79.813 106.998  0.00  0.00     0.440 N 
HETATM    5  C   UNK     0      91.236  80.590 106.045  0.00  0.00     0.326 A 
HETATM    6  C   UNK     0      92.527  80.658 105.210  0.00  0.00    -0.009 A 
HETATM    7  C   UNK     0      91.976  81.887 106.420  0.00  0.00     0.031 A 
HETATM    8  C   UNK     0      90.118  80.938 107.045  0.00  0.00     0.424 A 
HETATM    9  C   UNK     0      89.538  78.768 105.969  0.00  0.00     0.663 A 
HETATM   10  C   UNK     0      93.748  81.574 104.998  0.00  0.00    -0.032 A 
HETATM   11  C   UNK     0      91.378  82.838 107.474  0.00  0.00     0.072 A 
HETATM   12  C   UNK     0      92.399  79.350 104.409  0.00  0.00     0.024 A 
HETATM   13  C   UNK     0      93.314  82.234 105.742  0.00  0.00    -0.027 A 
HETATM   14  C   UNK     0      92.119  84.135 107.849  0.00  0.00     0.051 A 
HETATM   15  C   UNK     0      94.839  81.180 103.985  0.00  0.00     0.025 A 
HETATM   16  C   UNK     0      93.490  78.956 103.396  0.00  0.00     0.005 A 
HETATM   17  C   UNK     0      94.054  83.531 106.117  0.00  0.00     0.026 A 
HETATM   18  C   UNK     0      93.457  84.481 107.170  0.00  0.00     0.011 A 
HETATM   19  C   UNK     0      94.710  79.871 103.184  0.00  0.00     0.005 A 
ENDROOT
TORSDOF 0
ENDMDL
MODEL 9
REMARK VINA RESULT:      -6.4     22.751     23.952
REMARK  0 active torsions:
REMARK  status: ('A' for Active; 'I' for Inactive)
ROOT
HETATM    1  O   UNK     0      83.982  90.426  94.544  0.00  0.00    -0.304 OA
HETATM    2  O   UNK     0      86.541  85.854  93.151  0.00  0.00    -0.152 OA
HETATM    3  N   UNK     0      84.977  86.636  95.266  0.00  0.00     0.418 N 
HETATM    4  N   UNK     0      85.405  88.329  93.489  0.00  0.00     0.440 N 
HETATM    5  C   UNK     0      84.251  87.934  95.663  0.00  0.00     0.326 A 
HETATM    6  C   UNK     0      83.737  87.255  96.945  0.00  0.00    -0.009 A 
HETATM    7  C   UNK     0      83.401  88.960  96.435  0.00  0.00     0.031 A 
HETATM    8  C   UNK     0      84.515  88.981  94.564  0.00  0.00     0.424 A 
HETATM    9  C   UNK     0      85.691  86.880  93.924  0.00  0.00     0.663 A 
HETATM   10  C   UNK     0      82.876  87.570  98.183  0.00  0.00    -0.032 A 
HETATM   11  C   UNK     0      83.204  90.379  95.870  0.00  0.00     0.072 A 
HETATM   12  C   UNK     0      84.363  85.859  96.779  0.00  0.00     0.024 A 
HETATM   13  C   UNK     0      82.747  88.566  97.773  0.00  0.00    -0.027 A 
HETATM   14  C   UNK     0      82.354  91.404  96.644  0.00  0.00     0.051 A 
HETATM   15  C   UNK     0      82.642  86.488  99.254  0.00  0.00     0.025 A 
HETATM   16  C   UNK     0      84.129  84.777  97.850  0.00  0.00     0.005 A 
HETATM   17  C   UNK     0      81.897  89.592  98.546  0.00  0.00     0.026 A 
HETATM   18  C   UNK     0      81.701  91.010  97.981  0.00  0.00     0.011 A 
HETATM   19  C   UNK     0      83.269  85.091  99.087  0.00  0.00     0.005 A 
ENDROOT
TORSDOF 0
ENDMDL
MODEL 10
REMARK VINA RESULT:      -6.3     10.986     13.126
REMARK  0 active torsions:
REMARK  status: ('A' for Active; 'I' for Inactive)
ROOT
HETATM    1  O   UNK     0      93.255  78.086 104.537  0.00  0.00    -0.304 OA
HETATM    2  O   UNK     0      88.402  79.243 106.657  0.00  0.00    -0.152 OA
HETATM    3  N   UNK     0      90.780  80.589 106.403  0.00  0.00     0.418 N 
HETATM    4  N   UNK     0      90.687  78.275 105.485  0.00  0.00     0.440 N 
HETATM    5  C   UNK     0      92.158  80.261 105.801  0.00  0.00     0.326 A 
HETATM    6  C   UNK     0      92.666  81.658 106.202  0.00  0.00    -0.009 A 
HETATM    7  C   UNK     0      93.626  80.380 105.352  0.00  0.00     0.031 A 
HETATM    8  C   UNK     0      92.100  78.830 105.233  0.00  0.00     0.424 A 
HETATM    9  C   UNK     0      89.870  79.362 106.208  0.00  0.00     0.663 A 
HETATM   10  C   UNK     0      93.942  82.517 106.122  0.00  0.00    -0.032 A 
HETATM   11  C   UNK     0      94.311  79.200 104.636  0.00  0.00     0.072 A 
HETATM   12  C   UNK     0      91.397  82.224 106.864  0.00  0.00     0.024 A 
HETATM   13  C   UNK     0      94.410  81.678 105.619  0.00  0.00    -0.027 A 
HETATM   14  C   UNK     0      95.779  79.320 104.187  0.00  0.00     0.051 A 
HETATM   15  C   UNK     0      93.948  83.943 106.704  0.00  0.00     0.025 A 
HETATM   16  C   UNK     0      91.403  83.650 107.447  0.00  0.00     0.005 A 
HETATM   17  C   UNK     0      95.878  81.797 105.170  0.00  0.00     0.026 A 
HETATM   18  C   UNK     0      96.563  80.618 104.454  0.00  0.00     0.011 A 
HETATM   19  C   UNK     0      92.678  84.509 107.367  0.00  0.00     0.005 A 
ENDROOT
TORSDOF 0
ENDMDL
