MODEL 1
REMARK VINA RESULT:      -4.5      0.000      0.000
REMARK  2 active torsions:
REMARK  status: ('A' for Active; 'I' for Inactive)
REMARK    1  A    between atoms: C_1  and  C_2 
REMARK    2  A    between atoms: C_1  and  C_5 
ROOT
HETATM    1  C   UNK     0      79.496 106.848 112.837  0.00  0.00     0.035 A 
HETATM    2  C   UNK     0      80.278 105.666 112.234  0.00  0.00     0.120 A 
HETATM    3  N   UNK     0      80.932 105.802 110.846  0.00  0.00    -0.296 NA
HETATM    4  C   UNK     0      79.368 108.166 112.052  0.00  0.00     0.004 A 
HETATM    5  C   UNK     0      80.022 108.303 110.664  0.00  0.00     0.024 A 
HETATM    6  C   UNK     0      80.804 107.121 110.061  0.00  0.00     0.120 A 
HETATM    7  C   UNK     0      79.894 109.621 109.879  0.00  0.00     0.002 C 
ENDROOT
BRANCH   1   8
HETATM    8  C   UNK     0      78.843 106.711 114.224  0.00  0.00     0.100 C 
BRANCH   8   9
HETATM    9  C   UNK     0      77.258 106.784 114.368  0.00  0.00     0.185 C 
HETATM   10  O   UNK     0      76.686 108.153 114.696  0.00  0.00    -0.647 OA
HETATM   11  O   UNK     0      76.392 105.550 114.186  0.00  0.00    -0.647 OA
ENDBRANCH   8   9
ENDBRANCH   1   8
TORSDOF 2
ENDMDL
MODEL 2
REMARK VINA RESULT:      -4.3     33.891     34.321
REMARK  2 active torsions:
REMARK  status: ('A' for Active; 'I' for Inactive)
REMARK    1  A    between atoms: C_1  and  C_2 
REMARK    2  A    between atoms: C_1  and  C_5 
ROOT
HETATM    1  C   UNK     0     105.701  86.900 109.141  0.00  0.00     0.035 A 
HETATM    2  C   UNK     0     105.751  86.795 110.677  0.00  0.00     0.120 A 
HETATM    3  N   UNK     0     104.948  85.699 111.401  0.00  0.00    -0.296 NA
HETATM    4  C   UNK     0     104.847  85.908 108.330  0.00  0.00     0.004 A 
HETATM    5  C   UNK     0     104.044  84.812 109.053  0.00  0.00     0.024 A 
HETATM    6  C   UNK     0     104.094  84.707 110.589  0.00  0.00     0.120 A 
HETATM    7  C   UNK     0     103.190  83.820 108.242  0.00  0.00     0.002 C 
ENDROOT
BRANCH   1   8
HETATM    8  C   UNK     0     106.504  87.996 108.418  0.00  0.00     0.100 C 
BRANCH   8   9
HETATM    9  C   UNK     0     107.459  87.612 107.201  0.00  0.00     0.185 C 
HETATM   10  O   UNK     0     106.916  87.915 105.814  0.00  0.00    -0.647 OA
HETATM   11  O   UNK     0     108.820  86.984 107.436  0.00  0.00    -0.647 OA
ENDBRANCH   8   9
ENDBRANCH   1   8
TORSDOF 2
ENDMDL
MODEL 3
REMARK VINA RESULT:      -4.2     16.637     17.704
REMARK  2 active torsions:
REMARK  status: ('A' for Active; 'I' for Inactive)
REMARK    1  A    between atoms: C_1  and  C_2 
REMARK    2  A    between atoms: C_1  and  C_5 
ROOT
HETATM    1  C   UNK     0      88.348 105.496 127.505  0.00  0.00     0.035 A 
HETATM    2  C   UNK     0      89.119 106.541 128.333  0.00  0.00     0.120 A 
HETATM    3  N   UNK     0      89.022 108.034 127.973  0.00  0.00    -0.296 NA
HETATM    4  C   UNK     0      87.479 105.946 126.317  0.00  0.00     0.004 A 
HETATM    5  C   UNK     0      87.380 107.440 125.956  0.00  0.00     0.024 A 
HETATM    6  C   UNK     0      88.152 108.484 126.784  0.00  0.00     0.120 A 
HETATM    7  C   UNK     0      86.511 107.889 124.767  0.00  0.00     0.002 C 
ENDROOT
BRANCH   1   8
HETATM    8  C   UNK     0      88.446 104.002 127.866  0.00  0.00     0.100 C 
BRANCH   8   9
HETATM    9  C   UNK     0      87.313 103.322 128.755  0.00  0.00     0.185 C 
HETATM   10  O   UNK     0      85.924 103.282 128.139  0.00  0.00    -0.647 OA
HETATM   11  O   UNK     0      87.624 102.756 130.129  0.00  0.00    -0.647 OA
ENDBRANCH   8   9
ENDBRANCH   1   8
TORSDOF 2
ENDMDL
MODEL 4
REMARK VINA RESULT:      -4.2     33.310     33.834
REMARK  2 active torsions:
REMARK  status: ('A' for Active; 'I' for Inactive)
REMARK    1  A    between atoms: C_1  and  C_2 
REMARK    2  A    between atoms: C_1  and  C_5 
ROOT
HETATM    1  C   UNK     0     104.745  85.452 110.253  0.00  0.00     0.035 A 
HETATM    2  C   UNK     0     104.466  85.136 108.771  0.00  0.00     0.120 A 
HETATM    3  N   UNK     0     103.360  84.135 108.392  0.00  0.00    -0.296 NA
HETATM    4  C   UNK     0     103.918  84.766 111.355  0.00  0.00     0.004 A 
HETATM    5  C   UNK     0     102.812  83.764 110.977  0.00  0.00     0.024 A 
HETATM    6  C   UNK     0     102.532  83.448 109.495  0.00  0.00     0.120 A 
HETATM    7  C   UNK     0     101.985  83.078 112.079  0.00  0.00     0.002 C 
ENDROOT
BRANCH   1   8
HETATM    8  C   UNK     0     105.852  86.455 110.631  0.00  0.00     0.100 C 
BRANCH   8   9
HETATM    9  C   UNK     0     106.383  87.498 109.551  0.00  0.00     0.185 C 
HETATM   10  O   UNK     0     107.877  87.462 109.276  0.00  0.00    -0.647 OA
HETATM   11  O   UNK     0     105.438  88.460 108.853  0.00  0.00    -0.647 OA
ENDBRANCH   8   9
ENDBRANCH   1   8
TORSDOF 2
ENDMDL
MODEL 5
REMARK VINA RESULT:      -4.2     49.759     51.475
REMARK  2 active torsions:
REMARK  status: ('A' for Active; 'I' for Inactive)
REMARK    1  A    between atoms: C_1  and  C_2 
REMARK    2  A    between atoms: C_1  and  C_5 
ROOT
HETATM    1  C   UNK     0     117.325 123.122  81.221  0.00  0.00     0.035 A 
HETATM    2  C   UNK     0     117.065 121.763  80.545  0.00  0.00     0.120 A 
HETATM    3  N   UNK     0     115.664 121.127  80.608  0.00  0.00    -0.296 NA
HETATM    4  C   UNK     0     116.185 123.845  81.960  0.00  0.00     0.004 A 
HETATM    5  C   UNK     0     114.783 123.209  82.024  0.00  0.00     0.024 A 
HETATM    6  C   UNK     0     114.523 121.850  81.348  0.00  0.00     0.120 A 
HETATM    7  C   UNK     0     113.643 123.932  82.764  0.00  0.00     0.002 C 
ENDROOT
BRANCH   1   8
HETATM    8  C   UNK     0     118.727 123.758  81.157  0.00  0.00     0.100 C 
BRANCH   8   9
HETATM    9  C   UNK     0     119.797 123.442  82.294  0.00  0.00     0.185 C 
HETATM   10  O   UNK     0     119.413 122.347  83.276  0.00  0.00    -0.647 OA
HETATM   11  O   UNK     0     121.110 124.199  82.373  0.00  0.00    -0.647 OA
ENDBRANCH   8   9
ENDBRANCH   1   8
TORSDOF 2
ENDMDL
MODEL 6
REMARK VINA RESULT:      -4.2     55.112     56.802
REMARK  2 active torsions:
REMARK  status: ('A' for Active; 'I' for Inactive)
REMARK    1  A    between atoms: C_1  and  C_2 
REMARK    2  A    between atoms: C_1  and  C_5 
ROOT
HETATM    1  C   UNK     0     122.058  93.964  78.076  0.00  0.00     0.035 A 
HETATM    2  C   UNK     0     122.234  94.786  76.786  0.00  0.00     0.120 A 
HETATM    3  N   UNK     0     121.039  95.002  75.840  0.00  0.00    -0.296 NA
HETATM    4  C   UNK     0     120.685  93.358  78.421  0.00  0.00     0.004 A 
HETATM    5  C   UNK     0     119.489  93.574  77.476  0.00  0.00     0.024 A 
HETATM    6  C   UNK     0     119.665  94.396  76.185  0.00  0.00     0.120 A 
HETATM    7  C   UNK     0     118.116  92.968  77.820  0.00  0.00     0.002 C 
ENDROOT
BRANCH   1   8
HETATM    8  C   UNK     0     123.255  93.748  79.021  0.00  0.00     0.100 C 
BRANCH   8   9
HETATM    9  C   UNK     0     124.233  92.510  78.797  0.00  0.00     0.185 C 
HETATM   10  O   UNK     0     124.967  92.480  77.467  0.00  0.00    -0.647 OA
HETATM   11  O   UNK     0     124.404  91.440  79.860  0.00  0.00    -0.647 OA
ENDBRANCH   8   9
ENDBRANCH   1   8
TORSDOF 2
ENDMDL
MODEL 7
REMARK VINA RESULT:      -4.1     45.172     46.502
REMARK  2 active torsions:
REMARK  status: ('A' for Active; 'I' for Inactive)
REMARK    1  A    between atoms: C_1  and  C_2 
REMARK    2  A    between atoms: C_1  and  C_5 
ROOT
HETATM    1  C   UNK     0     120.420 122.200  97.324  0.00  0.00     0.035 A 
HETATM    2  C   UNK     0     121.629 123.095  97.656  0.00  0.00     0.120 A 
HETATM    3  N   UNK     0     123.025 122.734  97.118  0.00  0.00    -0.296 NA
HETATM    4  C   UNK     0     120.609 120.944  96.454  0.00  0.00     0.004 A 
HETATM    5  C   UNK     0     122.005 120.583  95.915  0.00  0.00     0.024 A 
HETATM    6  C   UNK     0     123.214 121.478  96.247  0.00  0.00     0.120 A 
HETATM    7  C   UNK     0     122.194 119.327  95.045  0.00  0.00     0.002 C 
ENDROOT
BRANCH   1   8
HETATM    8  C   UNK     0     119.023 122.561  97.863  0.00  0.00     0.100 C 
BRANCH   8   9
HETATM    9  C   UNK     0     118.462 121.840  99.168  0.00  0.00     0.185 C 
HETATM   10  O   UNK     0     116.950 121.726  99.261  0.00  0.00    -0.647 OA
HETATM   11  O   UNK     0     119.398 121.308 100.238  0.00  0.00    -0.647 OA
ENDBRANCH   8   9
ENDBRANCH   1   8
TORSDOF 2
ENDMDL
MODEL 8
REMARK VINA RESULT:      -4.1     19.682     20.515
REMARK  2 active torsions:
REMARK  status: ('A' for Active; 'I' for Inactive)
REMARK    1  A    between atoms: C_1  and  C_2 
REMARK    2  A    between atoms: C_1  and  C_5 
ROOT
HETATM    1  C   UNK     0      77.366  88.325 105.695  0.00  0.00     0.035 A 
HETATM    2  C   UNK     0      77.056  86.902 106.195  0.00  0.00     0.120 A 
HETATM    3  N   UNK     0      78.194  85.877 106.357  0.00  0.00    -0.296 NA
HETATM    4  C   UNK     0      78.814  88.724 105.357  0.00  0.00     0.004 A 
HETATM    5  C   UNK     0      79.953  87.699 105.518  0.00  0.00     0.024 A 
HETATM    6  C   UNK     0      79.643  86.275 106.018  0.00  0.00     0.120 A 
HETATM    7  C   UNK     0      81.401  88.097 105.180  0.00  0.00     0.002 C 
ENDROOT
BRANCH   1   8
HETATM    8  C   UNK     0      76.228  89.350 105.534  0.00  0.00     0.100 C 
BRANCH   8   9
HETATM    9  C   UNK     0      75.783  89.823 104.079  0.00  0.00     0.185 C 
HETATM   10  O   UNK     0      74.422  90.494 103.990  0.00  0.00    -0.647 OA
HETATM   11  O   UNK     0      76.677  89.606 102.872  0.00  0.00    -0.647 OA
ENDBRANCH   8   9
ENDBRANCH   1   8
TORSDOF 2
ENDMDL
MODEL 9
REMARK VINA RESULT:      -4.0     49.270     50.651
REMARK  2 active torsions:
REMARK  status: ('A' for Active; 'I' for Inactive)
REMARK    1  A    between atoms: C_1  and  C_2 
REMARK    2  A    between atoms: C_1  and  C_5 
ROOT
HETATM    1  C   UNK     0     123.995 118.126  92.855  0.00  0.00     0.035 A 
HETATM    2  C   UNK     0     124.994 117.232  93.614  0.00  0.00     0.120 A 
HETATM    3  N   UNK     0     125.102 117.326  95.146  0.00  0.00    -0.296 NA
HETATM    4  C   UNK     0     123.103 119.113  93.630  0.00  0.00     0.004 A 
HETATM    5  C   UNK     0     123.211 119.207  95.163  0.00  0.00     0.024 A 
HETATM    6  C   UNK     0     124.210 118.314  95.922  0.00  0.00     0.120 A 
HETATM    7  C   UNK     0     122.319 120.195  95.939  0.00  0.00     0.002 C 
ENDROOT
BRANCH   1   8
HETATM    8  C   UNK     0     123.887 118.031  91.322  0.00  0.00     0.100 C 
BRANCH   8   9
HETATM    9  C   UNK     0     125.160 118.340  90.414  0.00  0.00     0.185 C 
HETATM   10  O   UNK     0     125.083 119.606  89.577  0.00  0.00    -0.647 OA
HETATM   11  O   UNK     0     126.363 117.414  90.402  0.00  0.00    -0.647 OA
ENDBRANCH   8   9
ENDBRANCH   1   8
TORSDOF 2
ENDMDL
MODEL 10
REMARK VINA RESULT:      -4.0     16.967     17.619
REMARK  2 active torsions:
REMARK  status: ('A' for Active; 'I' for Inactive)
REMARK    1  A    between atoms: C_1  and  C_2 
REMARK    2  A    between atoms: C_1  and  C_5 
ROOT
HETATM    1  C   UNK     0      85.690 103.858 128.187  0.00  0.00     0.035 A 
HETATM    2  C   UNK     0      86.850 102.885 128.473  0.00  0.00     0.120 A 
HETATM    3  N   UNK     0      88.300 103.307 128.178  0.00  0.00    -0.296 NA
HETATM    4  C   UNK     0      85.982 105.253 127.606  0.00  0.00     0.004 A 
HETATM    5  C   UNK     0      87.433 105.676 127.311  0.00  0.00     0.024 A 
HETATM    6  C   UNK     0      88.593 104.703 127.597  0.00  0.00     0.120 A 
HETATM    7  C   UNK     0      87.725 107.072 126.730  0.00  0.00     0.002 C 
ENDROOT
BRANCH   1   8
HETATM    8  C   UNK     0      84.239 103.434 128.483  0.00  0.00     0.100 C 
BRANCH   8   9
HETATM    9  C   UNK     0      83.879 101.892 128.654  0.00  0.00     0.185 C 
HETATM   10  O   UNK     0      83.889 101.366 130.080  0.00  0.00    -0.647 OA
HETATM   11  O   UNK     0      83.551 101.021 127.455  0.00  0.00    -0.647 OA
ENDBRANCH   8   9
ENDBRANCH   1   8
TORSDOF 2
ENDMDL
