MODEL 1
REMARK VINA RESULT:     -10.4      0.000      0.000
REMARK  3 active torsions:
REMARK  status: ('A' for Active; 'I' for Inactive)
REMARK    1  A    between atoms: C_16  and  C_21 
REMARK    2  A    between atoms: C_24  and  O_62 
REMARK    3  A    between atoms: C_34  and  O_35 
ROOT
HETATM    1  C   UNK     0     124.399 118.232  96.601  0.00  0.00     0.018 A 
HETATM    2  C   UNK     0     125.434 118.045  95.477  0.00  0.00     0.166 A 
HETATM    3  C   UNK     0     123.039 118.889  96.295  0.00  0.00     0.004 A 
HETATM    4  N   UNK     0     125.110 118.514  94.046  0.00  0.00    -0.347 N 
HETATM    5  C   UNK     0     122.716 119.357  94.865  0.00  0.00     0.024 A 
HETATM    6  C   UNK     0     123.751 119.170  93.740  0.00  0.00     0.099 A 
HETATM    7  C   UNK     0     126.793 117.389  95.783  0.00  0.00     0.281 C 
HETATM    8  O   UNK     0     127.828 117.201  94.658  0.00  0.00    -0.189 OA
HETATM    9  O   UNK     0     127.505 117.670  93.226  0.00  0.00    -0.196 OA
HETATM   10  C   UNK     0     126.145 118.326  92.922  0.00  0.00     0.265 A 
HETATM   11  C   UNK     0     125.822 118.795  91.490  0.00  0.00     0.231 A 
HETATM   12  O   UNK     0     124.463 119.451  91.184  0.00  0.00    -0.216 OA
HETATM   13  C   UNK     0     128.477 116.263  97.520  0.00  0.00     0.175 A 
HETATM   14  C   UNK     0     129.512 116.076  96.395  0.00  0.00     0.075 A 
HETATM   15  O   UNK     0     127.118 116.920  97.214  0.00  0.00    -0.336 OA
HETATM   16  C   UNK     0     130.160 115.139  99.256  0.00  0.00     0.065 A 
HETATM   17  O   UNK     0     131.195 114.951  98.132  0.00  0.00    -0.317 OA
HETATM   18  C   UNK     0     128.800 115.795  98.950  0.00  0.00    -0.008 A 
HETATM   19  C   UNK     0     130.871 115.420  96.700  0.00  0.00     0.072 A 
HETATM   20  C   UNK     0     127.766 115.982 100.076  0.00  0.00     0.030 C 
HETATM   21  O   UNK     0     128.216 117.951  90.671  0.00  0.00    -0.365 OA
HETATM   22  C   UNK     0     126.856 118.607  90.366  0.00  0.00     0.149 A 
HETATM   23  C   UNK     0     129.250 117.764  89.547  0.00  0.00     0.151 A 
HETATM   24  C   UNK     0     128.927 118.232  88.117  0.00  0.00     0.021 A 
HETATM   25  C   UNK     0     126.532 119.076  88.935  0.00  0.00     0.030 A 
HETATM   26  C   UNK     0     127.567 118.889  87.810  0.00  0.00     0.004 A 
HETATM   27  C   UNK     0     130.610 117.108  89.853  0.00  0.00     0.071 C 
HETATM   28  C   UNK     0     131.646 116.920  88.728  0.00  0.00     0.066 C 
HETATM   29  C   UNK     0     133.329 115.795  90.465  0.00  0.00     0.028 C 
HETATM   30  C   UNK     0     133.005 116.264  89.034  0.00  0.00    -0.025 C 
HETATM   31  C   UNK     0     134.040 116.076  87.909  0.00  0.00     0.028 C 
HETATM   32  C   UNK     0     125.173 119.732  88.630  0.00  0.00     0.003 C 
HETATM   33  C   UNK     0     131.907 115.232  95.575  0.00  0.00    -0.021 C 
HETATM   34  C   UNK     0     131.583 115.701  94.145  0.00  0.00     0.028 C 
HETATM   35  C   UNK     0     133.266 114.576  95.882  0.00  0.00     0.048 C 
HETATM   36  C   UNK     0     134.301 114.389  94.757  0.00  0.00    -0.012 C 
HETATM   37  C   UNK     0     133.977 114.858  93.326  0.00  0.00     0.029 C 
HETATM   38  C   UNK     0     135.661 113.732  95.063  0.00  0.00     0.148 C 
HETATM   39  C   UNK     0     136.696 113.545  93.939  0.00  0.00     0.144 A 
HETATM   40  O   UNK     0     136.372 114.014  92.508  0.00  0.00    -0.322 OA
HETATM   41  O   UNK     0     135.985 113.264  96.494  0.00  0.00    -0.189 OA
HETATM   42  C   UNK     0     138.055 112.889  94.245  0.00  0.00     0.151 A 
HETATM   43  C   UNK     0     135.417 115.421  88.181  0.00  0.00     0.030 C 
HETATM   44  C   UNK     0     136.619 115.203  86.874  0.00  0.00    -0.026 C 
HETATM   45  C   UNK     0     139.090 112.701  93.120  0.00  0.00     0.004 A 
HETATM   46  C   UNK     0     138.719 113.192  91.682  0.00  0.00     0.002 A 
HETATM   47  C   UNK     0     137.407 113.826  91.383  0.00  0.00     0.175 A 
HETATM   48  O   UNK     0     138.379 112.420  95.675  0.00  0.00    -0.188 OA
HETATM   49  C   UNK     0     137.861 114.599  87.172  0.00  0.00    -0.005 C 
HETATM   50  C   UNK     0     138.081 114.149  88.717  0.00  0.00    -0.005 C 
HETATM   51  C   UNK     0     139.152 113.433  89.822  0.00  0.00    -0.024 C 
HETATM   52  C   UNK     0     140.420 112.048  93.469  0.00  0.00     0.033 C 
HETATM   53  O   UNK     0     127.124 118.178  91.733  0.00  0.00     0.000 OA
HETATM   54  C   UNK     0     140.527 112.957  89.316  0.00  0.00     0.031 C 
ENDROOT
BRANCH  16  55
HETATM   55  C   UNK     0     130.484 114.670 100.687  0.00  0.00     0.072 A 
HETATM   56  C   UNK     0     131.245 115.601 101.649  0.00  0.00     0.007 A 
HETATM   57  C   UNK     0     131.569 115.133 103.080  0.00  0.00     0.056 A 
HETATM   58  C   UNK     0     131.133 113.732 103.549  0.00  0.00     0.127 A 
HETATM   59  C   UNK     0     130.372 112.800 102.588  0.00  0.00     0.093 A 
HETATM   60  O   UNK     0     131.457 113.264 104.979  0.00  0.00    -0.193 OA
HETATM   61  C   UNK     0     130.047 113.269 101.157  0.00  0.00     0.053 A 
BRANCH  59  62
HETATM   62  O   UNK     0     129.935 111.401 103.056  0.00  0.00    -0.331 OA
HETATM   63  C   UNK     0     128.443 111.015 103.045  0.00  0.00     0.181 C 
ENDBRANCH  59  62
ENDBRANCH  16  55
BRANCH  28  64
HETATM   64  O   UNK     0     131.321 117.389  87.297  0.00  0.00    -0.333 OA
HETATM   65  C   UNK     0     132.034 118.621  86.711  0.00  0.00     0.181 C 
ENDBRANCH  28  64
TORSDOF 3
ENDMDL
MODEL 2
REMARK VINA RESULT:      -9.8     20.524     26.987
REMARK  3 active torsions:
REMARK  status: ('A' for Active; 'I' for Inactive)
REMARK    1  A    between atoms: C_16  and  C_21 
REMARK    2  A    between atoms: C_24  and  O_62 
REMARK    3  A    between atoms: C_34  and  O_35 
ROOT
HETATM    1  C   UNK     0     116.936 123.552  81.312  0.00  0.00     0.018 A 
HETATM    2  C   UNK     0     116.166 122.234  81.105  0.00  0.00     0.166 A 
HETATM    3  C   UNK     0     118.449 123.613  81.025  0.00  0.00     0.004 A 
HETATM    4  N   UNK     0     116.908 120.978  80.612  0.00  0.00    -0.347 N 
HETATM    5  C   UNK     0     119.190 122.357  80.532  0.00  0.00     0.024 A 
HETATM    6  C   UNK     0     118.420 121.040  80.325  0.00  0.00     0.099 A 
HETATM    7  C   UNK     0     114.654 122.173  81.392  0.00  0.00     0.281 C 
HETATM    8  O   UNK     0     113.884 120.856  81.185  0.00  0.00    -0.189 OA
HETATM    9  O   UNK     0     114.626 119.599  80.691  0.00  0.00    -0.196 OA
HETATM   10  C   UNK     0     116.137 119.661  80.405  0.00  0.00     0.265 A 
HETATM   11  C   UNK     0     116.879 118.404  79.911  0.00  0.00     0.231 A 
HETATM   12  O   UNK     0     118.391 118.465  79.624  0.00  0.00    -0.216 OA
HETATM   13  C   UNK     0     112.400 123.368  82.172  0.00  0.00     0.175 A 
HETATM   14  C   UNK     0     111.630 122.051  81.966  0.00  0.00     0.075 A 
HETATM   15  O   UNK     0     113.912 123.429  81.886  0.00  0.00    -0.336 OA
HETATM   16  C   UNK     0     110.147 124.563  82.953  0.00  0.00     0.065 A 
HETATM   17  O   UNK     0     109.377 123.245  82.746  0.00  0.00    -0.317 OA
HETATM   18  C   UNK     0     111.659 124.624  82.666  0.00  0.00    -0.008 A 
HETATM   19  C   UNK     0     110.118 121.988  82.252  0.00  0.00     0.072 A 
HETATM   20  C   UNK     0     112.428 125.942  82.873  0.00  0.00     0.030 C 
HETATM   21  O   UNK     0     114.597 117.025  79.991  0.00  0.00    -0.365 OA
HETATM   22  C   UNK     0     116.109 117.087  79.704  0.00  0.00     0.149 A 
HETATM   23  C   UNK     0     113.828 115.708  79.784  0.00  0.00     0.151 A 
HETATM   24  C   UNK     0     114.569 114.452  79.291  0.00  0.00     0.021 A 
HETATM   25  C   UNK     0     116.851 115.831  79.211  0.00  0.00     0.030 A 
HETATM   26  C   UNK     0     116.081 114.514  79.004  0.00  0.00     0.004 A 
HETATM   27  C   UNK     0     112.316 115.647  80.071  0.00  0.00     0.071 C 
HETATM   28  C   UNK     0     111.545 114.329  79.864  0.00  0.00     0.066 C 
HETATM   29  C   UNK     0     109.291 115.524  80.644  0.00  0.00     0.028 C 
HETATM   30  C   UNK     0     110.033 114.268  80.150  0.00  0.00    -0.025 C 
HETATM   31  C   UNK     0     109.263 112.950  79.944  0.00  0.00     0.028 C 
HETATM   32  C   UNK     0     118.362 115.893  78.924  0.00  0.00     0.003 C 
HETATM   33  C   UNK     0     109.348 120.671  82.045  0.00  0.00    -0.021 C 
HETATM   34  C   UNK     0     110.089 119.415  81.552  0.00  0.00     0.028 C 
HETATM   35  C   UNK     0     107.836 120.610  82.332  0.00  0.00     0.048 C 
HETATM   36  C   UNK     0     107.066 119.292  82.125  0.00  0.00    -0.012 C 
HETATM   37  C   UNK     0     107.808 118.036  81.631  0.00  0.00     0.029 C 
HETATM   38  C   UNK     0     105.554 119.231  82.412  0.00  0.00     0.148 C 
HETATM   39  C   UNK     0     104.784 117.914  82.205  0.00  0.00     0.144 A 
HETATM   40  O   UNK     0     105.526 116.657  81.711  0.00  0.00    -0.322 OA
HETATM   41  O   UNK     0     104.812 120.487  82.905  0.00  0.00    -0.189 OA
HETATM   42  C   UNK     0     103.271 117.853  82.492  0.00  0.00     0.151 A 
HETATM   43  C   UNK     0     107.742 112.852  80.222  0.00  0.00     0.030 C 
HETATM   44  C   UNK     0     106.847 111.322  79.982  0.00  0.00    -0.026 C 
HETATM   45  C   UNK     0     102.501 116.535  82.285  0.00  0.00     0.004 A 
HETATM   46  C   UNK     0     103.295 115.284  81.782  0.00  0.00     0.002 A 
HETATM   47  C   UNK     0     104.755 115.340  81.504  0.00  0.00     0.175 A 
HETATM   48  O   UNK     0     102.530 119.108  82.985  0.00  0.00    -0.188 OA
HETATM   49  C   UNK     0     105.462 111.283  80.249  0.00  0.00    -0.005 C 
HETATM   50  C   UNK     0     104.796 112.672  80.764  0.00  0.00    -0.005 C 
HETATM   51  C   UNK     0     103.363 113.433  81.260  0.00  0.00    -0.024 C 
HETATM   52  C   UNK     0     101.008 116.521  82.581  0.00  0.00     0.033 C 
HETATM   53  O   UNK     0     115.445 118.298  80.170  0.00  0.00     0.000 OA
HETATM   54  C   UNK     0     102.062 112.607  81.295  0.00  0.00     0.031 C 
ENDROOT
BRANCH  16  55
HETATM   55  C   UNK     0     109.405 125.819  83.446  0.00  0.00     0.072 A 
HETATM   56  C   UNK     0     108.768 126.786  82.431  0.00  0.00     0.007 A 
HETATM   57  C   UNK     0     108.026 128.042  82.924  0.00  0.00     0.056 A 
HETATM   58  C   UNK     0     107.921 128.332  84.434  0.00  0.00     0.127 A 
HETATM   59  C   UNK     0     108.558 127.365  85.449  0.00  0.00     0.093 A 
HETATM   60  O   UNK     0     107.179 129.587  84.927  0.00  0.00    -0.193 OA
HETATM   61  C   UNK     0     109.300 126.109  84.955  0.00  0.00     0.053 A 
BRANCH  59  62
HETATM   62  O   UNK     0     108.454 127.654  86.958  0.00  0.00    -0.331 OA
HETATM   63  C   UNK     0     109.319 126.861  87.955  0.00  0.00     0.181 C 
ENDBRANCH  59  62
ENDBRANCH  16  55
BRANCH  28  64
HETATM   64  O   UNK     0     112.287 113.072  79.370  0.00  0.00    -0.333 OA
HETATM   65  C   UNK     0     112.047 112.548  77.943  0.00  0.00     0.181 C 
ENDBRANCH  28  64
TORSDOF 3
ENDMDL
MODEL 3
REMARK VINA RESULT:      -9.7      2.463     10.342
REMARK  3 active torsions:
REMARK  status: ('A' for Active; 'I' for Inactive)
REMARK    1  A    between atoms: C_16  and  C_21 
REMARK    2  A    between atoms: C_24  and  O_62 
REMARK    3  A    between atoms: C_34  and  O_35 
ROOT
HETATM    1  C   UNK     0     130.225 118.602  85.700  0.00  0.00     0.018 A 
HETATM    2  C   UNK     0     129.757 118.416  87.156  0.00  0.00     0.166 A 
HETATM    3  C   UNK     0     129.284 119.249  84.666  0.00  0.00     0.004 A 
HETATM    4  N   UNK     0     128.349 118.877  87.577  0.00  0.00    -0.347 N 
HETATM    5  C   UNK     0     127.877 119.709  85.087  0.00  0.00     0.024 A 
HETATM    6  C   UNK     0     127.409 119.523  86.543  0.00  0.00     0.099 A 
HETATM    7  C   UNK     0     130.697 117.770  88.190  0.00  0.00     0.281 C 
HETATM    8  O   UNK     0     130.230 117.584  89.646  0.00  0.00    -0.189 OA
HETATM    9  O   UNK     0     128.821 118.045  90.068  0.00  0.00    -0.196 OA
HETATM   10  C   UNK     0     127.882 118.691  89.032  0.00  0.00     0.265 A 
HETATM   11  C   UNK     0     126.473 119.151  89.454  0.00  0.00     0.231 A 
HETATM   12  O   UNK     0     125.533 119.798  88.420  0.00  0.00    -0.216 OA
HETATM   13  C   UNK     0     133.046 116.663  88.804  0.00  0.00     0.175 A 
HETATM   14  C   UNK     0     132.578 116.477  90.259  0.00  0.00     0.075 A 
HETATM   15  O   UNK     0     132.106 117.309  87.769  0.00  0.00    -0.336 OA
HETATM   16  C   UNK     0     135.394 115.556  89.417  0.00  0.00     0.065 A 
HETATM   17  O   UNK     0     134.926 115.370  90.872  0.00  0.00    -0.317 OA
HETATM   18  C   UNK     0     134.453 116.202  88.383  0.00  0.00    -0.008 A 
HETATM   19  C   UNK     0     133.518 115.830  91.294  0.00  0.00     0.072 A 
HETATM   20  C   UNK     0     134.922 116.388  86.927  0.00  0.00     0.030 C 
HETATM   21  O   UNK     0     126.945 118.319  91.944  0.00  0.00    -0.365 OA
HETATM   22  C   UNK     0     126.006 118.966  90.909  0.00  0.00     0.149 A 
HETATM   23  C   UNK     0     126.478 118.134  93.398  0.00  0.00     0.151 A 
HETATM   24  C   UNK     0     125.070 118.594  93.820  0.00  0.00     0.021 A 
HETATM   25  C   UNK     0     124.598 119.426  91.330  0.00  0.00     0.030 A 
HETATM   26  C   UNK     0     124.130 119.240  92.785  0.00  0.00     0.004 A 
HETATM   27  C   UNK     0     127.418 117.487  94.433  0.00  0.00     0.071 C 
HETATM   28  C   UNK     0     126.950 117.301  95.889  0.00  0.00     0.066 C 
HETATM   29  C   UNK     0     129.299 116.194  96.503  0.00  0.00     0.028 C 
HETATM   30  C   UNK     0     127.891 116.655  96.924  0.00  0.00    -0.025 C 
HETATM   31  C   UNK     0     127.423 116.469  98.379  0.00  0.00     0.028 C 
HETATM   32  C   UNK     0     123.658 120.072  90.296  0.00  0.00     0.003 C 
HETATM   33  C   UNK     0     133.050 115.645  92.750  0.00  0.00    -0.021 C 
HETATM   34  C   UNK     0     131.642 116.105  93.171  0.00  0.00     0.028 C 
HETATM   35  C   UNK     0     133.990 114.998  93.784  0.00  0.00     0.048 C 
HETATM   36  C   UNK     0     133.522 114.812  95.240  0.00  0.00    -0.012 C 
HETATM   37  C   UNK     0     132.114 115.273  95.661  0.00  0.00     0.029 C 
HETATM   38  C   UNK     0     134.463 114.166  96.274  0.00  0.00     0.148 C 
HETATM   39  C   UNK     0     133.995 113.980  97.729  0.00  0.00     0.144 A 
HETATM   40  O   UNK     0     132.587 114.441  98.150  0.00  0.00    -0.322 OA
HETATM   41  O   UNK     0     135.871 113.705  95.853  0.00  0.00    -0.189 OA
HETATM   42  C   UNK     0     134.935 113.333  98.764  0.00  0.00     0.151 A 
HETATM   43  C   UNK     0     128.341 115.823  99.446  0.00  0.00     0.030 C 
HETATM   44  C   UNK     0     127.798 115.607 101.137  0.00  0.00    -0.026 C 
HETATM   45  C   UNK     0     134.468 113.148 100.219  0.00  0.00     0.004 A 
HETATM   46  C   UNK     0     133.030 113.630 100.603  0.00  0.00     0.002 A 
HETATM   47  C   UNK     0     132.119 114.255  99.606  0.00  0.00     0.175 A 
HETATM   48  O   UNK     0     136.343 112.873  98.343  0.00  0.00    -0.188 OA
HETATM   49  C   UNK     0     128.673 115.012 102.072  0.00  0.00    -0.005 C 
HETATM   50  C   UNK     0     130.129 114.570 101.505  0.00  0.00    -0.005 C 
HETATM   51  C   UNK     0     131.623 113.866 101.895  0.00  0.00    -0.024 C 
HETATM   52  C   UNK     0     135.431 112.504 101.207  0.00  0.00     0.033 C 
HETATM   53  O   UNK     0     127.330 118.543  90.470  0.00  0.00     0.000 OA
HETATM   54  C   UNK     0     131.863 113.396 103.343  0.00  0.00     0.031 C 
ENDROOT
BRANCH  16  55
HETATM   55  C   UNK     0     136.802 115.095  88.996  0.00  0.00     0.072 A 
HETATM   56  C   UNK     0     138.020 115.997  89.267  0.00  0.00     0.007 A 
HETATM   57  C   UNK     0     139.428 115.536  88.846  0.00  0.00     0.056 A 
HETATM   58  C   UNK     0     139.618 114.174  88.154  0.00  0.00     0.127 A 
HETATM   59  C   UNK     0     138.400 113.272  87.883  0.00  0.00     0.093 A 
HETATM   60  O   UNK     0     141.026 113.714  87.733  0.00  0.00    -0.193 OA
HETATM   61  C   UNK     0     136.992 113.732  88.304  0.00  0.00     0.053 A 
BRANCH  59  62
HETATM   62  O   UNK     0     138.589 111.909  87.191  0.00  0.00    -0.331 OA
HETATM   63  C   UNK     0     137.548 111.413  86.170  0.00  0.00     0.181 C 
ENDBRANCH  59  62
ENDBRANCH  16  55
BRANCH  28  64
HETATM   64  O   UNK     0     125.542 117.762  96.310  0.00  0.00    -0.333 OA
HETATM   65  C   UNK     0     125.366 119.064  97.111  0.00  0.00     0.181 C 
ENDBRANCH  28  64
TORSDOF 3
ENDMDL
MODEL 4
REMARK VINA RESULT:      -9.5     40.896     48.536
REMARK  3 active torsions:
REMARK  status: ('A' for Active; 'I' for Inactive)
REMARK    1  A    between atoms: C_16  and  C_21 
REMARK    2  A    between atoms: C_24  and  O_62 
REMARK    3  A    between atoms: C_34  and  O_35 
ROOT
HETATM    1  C   UNK     0     109.326  84.329 114.459  0.00  0.00     0.018 A 
HETATM    2  C   UNK     0     108.280  84.278 113.330  0.00  0.00     0.166 A 
HETATM    3  C   UNK     0     110.457  85.373 114.415  0.00  0.00     0.004 A 
HETATM    4  N   UNK     0     108.366  85.272 112.156  0.00  0.00    -0.347 N 
HETATM    5  C   UNK     0     110.543  86.366 113.242  0.00  0.00     0.024 A 
HETATM    6  C   UNK     0     109.497  86.315 112.112  0.00  0.00     0.099 A 
HETATM    7  C   UNK     0     107.148  83.234 113.374  0.00  0.00     0.281 C 
HETATM    8  O   UNK     0     106.103  83.184 112.244  0.00  0.00    -0.189 OA
HETATM    9  O   UNK     0     106.188  84.177 111.070  0.00  0.00    -0.196 OA
HETATM   10  C   UNK     0     107.320  85.221 111.027  0.00  0.00     0.265 A 
HETATM   11  C   UNK     0     107.405  86.214 109.852  0.00  0.00     0.231 A 
HETATM   12  O   UNK     0     108.537  87.258 109.808  0.00  0.00    -0.216 OA
HETATM   13  C   UNK     0     105.931  81.197 114.592  0.00  0.00     0.175 A 
HETATM   14  C   UNK     0     104.885  81.146 113.462  0.00  0.00     0.075 A 
HETATM   15  O   UNK     0     107.062  82.241 114.548  0.00  0.00    -0.336 OA
HETATM   16  C   UNK     0     104.714  79.160 115.809  0.00  0.00     0.065 A 
HETATM   17  O   UNK     0     103.668  79.109 114.680  0.00  0.00    -0.317 OA
HETATM   18  C   UNK     0     105.845  80.204 115.765  0.00  0.00    -0.008 A 
HETATM   19  C   UNK     0     103.753  80.103 113.505  0.00  0.00     0.072 A 
HETATM   20  C   UNK     0     106.890  80.253 116.895  0.00  0.00     0.030 C 
HETATM   21  O   UNK     0     105.229  85.120 108.766  0.00  0.00    -0.365 OA
HETATM   22  C   UNK     0     106.361  86.164 108.723  0.00  0.00     0.149 A 
HETATM   23  C   UNK     0     104.184  85.070 107.638  0.00  0.00     0.151 A 
HETATM   24  C   UNK     0     104.270  86.063 106.464  0.00  0.00     0.021 A 
HETATM   25  C   UNK     0     106.447  87.157 107.550  0.00  0.00     0.030 A 
HETATM   26  C   UNK     0     105.401  87.107 106.420  0.00  0.00     0.004 A 
HETATM   27  C   UNK     0     103.052  84.026 107.682  0.00  0.00     0.071 C 
HETATM   28  C   UNK     0     102.006  83.976 106.551  0.00  0.00     0.066 C 
HETATM   29  C   UNK     0     100.789  81.938 107.770  0.00  0.00     0.028 C 
HETATM   30  C   UNK     0     100.875  82.932 106.596  0.00  0.00    -0.025 C 
HETATM   31  C   UNK     0      99.829  82.881 105.466  0.00  0.00     0.028 C 
HETATM   32  C   UNK     0     107.578  88.201 107.506  0.00  0.00     0.003 C 
HETATM   33  C   UNK     0     102.708  80.052 112.376  0.00  0.00    -0.021 C 
HETATM   34  C   UNK     0     102.794  81.045 111.202  0.00  0.00     0.028 C 
HETATM   35  C   UNK     0     101.576  79.008 112.420  0.00  0.00     0.048 C 
HETATM   36  C   UNK     0     100.531  78.958 111.290  0.00  0.00    -0.012 C 
HETATM   37  C   UNK     0     100.617  79.951 110.117  0.00  0.00     0.029 C 
HETATM   38  C   UNK     0      99.399  77.914 111.335  0.00  0.00     0.148 C 
HETATM   39  C   UNK     0      98.354  77.863 110.205  0.00  0.00     0.144 A 
HETATM   40  O   UNK     0      98.440  78.857 109.031  0.00  0.00    -0.322 OA
HETATM   41  O   UNK     0      99.313  76.920 112.508  0.00  0.00    -0.189 OA
HETATM   42  C   UNK     0      97.222  76.819 110.249  0.00  0.00     0.151 A 
HETATM   43  C   UNK     0      98.678  81.845 105.478  0.00  0.00     0.030 C 
HETATM   44  C   UNK     0      97.463  81.786 104.166  0.00  0.00    -0.026 C 
HETATM   45  C   UNK     0      96.177  76.769 109.120  0.00  0.00     0.004 A 
HETATM   46  C   UNK     0      96.302  77.797 107.947  0.00  0.00     0.002 A 
HETATM   47  C   UNK     0      97.394  78.807 107.902  0.00  0.00     0.175 A 
HETATM   48  O   UNK     0      97.137  75.827 111.423  0.00  0.00    -0.188 OA
HETATM   49  C   UNK     0      96.433  80.823 104.222  0.00  0.00    -0.005 C 
HETATM   50  C   UNK     0      96.451  79.834 105.510  0.00  0.00    -0.005 C 
HETATM   51  C   UNK     0      95.677  78.538 106.285  0.00  0.00    -0.024 C 
HETATM   52  C   UNK     0      95.076  75.720 109.205  0.00  0.00     0.033 C 
HETATM   53  O   UNK     0     106.315  85.242 109.851  0.00  0.00     0.000 OA
HETATM   54  C   UNK     0      94.422  77.929 105.630  0.00  0.00     0.031 C 
ENDROOT
BRANCH  16  55
HETATM   55  C   UNK     0     104.628  78.166 116.983  0.00  0.00     0.072 A 
HETATM   56  C   UNK     0     105.396  76.833 116.921  0.00  0.00     0.007 A 
HETATM   57  C   UNK     0     105.310  75.839 118.095  0.00  0.00     0.056 A 
HETATM   58  C   UNK     0     104.455  76.179 119.331  0.00  0.00     0.127 A 
HETATM   59  C   UNK     0     103.687  77.512 119.393  0.00  0.00     0.093 A 
HETATM   60  O   UNK     0     104.370  75.185 120.504  0.00  0.00    -0.193 OA
HETATM   61  C   UNK     0     103.773  78.506 118.219  0.00  0.00     0.053 A 
BRANCH  59  62
HETATM   62  O   UNK     0     102.833  77.852 120.628  0.00  0.00    -0.331 OA
HETATM   63  C   UNK     0     101.364  77.393 120.698  0.00  0.00     0.181 C 
ENDBRANCH  59  62
ENDBRANCH  16  55
BRANCH  28  64
HETATM   64  O   UNK     0     102.092  84.969 105.378  0.00  0.00    -0.333 OA
HETATM   65  C   UNK     0     102.520  84.478 103.983  0.00  0.00     0.181 C 
ENDBRANCH  28  64
TORSDOF 3
ENDMDL
MODEL 5
REMARK VINA RESULT:      -9.4      2.907     10.762
REMARK  3 active torsions:
REMARK  status: ('A' for Active; 'I' for Inactive)
REMARK    1  A    between atoms: C_16  and  C_21 
REMARK    2  A    between atoms: C_24  and  O_62 
REMARK    3  A    between atoms: C_34  and  O_35 
ROOT
HETATM    1  C   UNK     0     125.182 120.535  88.828  0.00  0.00     0.018 A 
HETATM    2  C   UNK     0     126.177 119.790  89.737  0.00  0.00     0.166 A 
HETATM    3  C   UNK     0     123.796 120.935  89.368  0.00  0.00     0.004 A 
HETATM    4  N   UNK     0     125.786 119.445  91.186  0.00  0.00    -0.347 N 
HETATM    5  C   UNK     0     123.405 120.590  90.816  0.00  0.00     0.024 A 
HETATM    6  C   UNK     0     124.400 119.845  91.726  0.00  0.00     0.099 A 
HETATM    7  C   UNK     0     127.563 119.391  89.197  0.00  0.00     0.281 C 
HETATM    8  O   UNK     0     128.558 118.646  90.106  0.00  0.00    -0.189 OA
HETATM    9  O   UNK     0     128.168 118.300  91.556  0.00  0.00    -0.196 OA
HETATM   10  C   UNK     0     126.782 118.700  92.095  0.00  0.00     0.265 A 
HETATM   11  C   UNK     0     126.391 118.355  93.545  0.00  0.00     0.231 A 
HETATM   12  O   UNK     0     125.005 118.755  94.085  0.00  0.00    -0.216 OA
HETATM   13  C   UNK     0     129.339 119.336  87.207  0.00  0.00     0.175 A 
HETATM   14  C   UNK     0     130.335 118.591  88.116  0.00  0.00     0.075 A 
HETATM   15  O   UNK     0     127.953 119.736  87.747  0.00  0.00    -0.336 OA
HETATM   16  C   UNK     0     131.116 119.281  85.218  0.00  0.00     0.065 A 
HETATM   17  O   UNK     0     132.111 118.536  86.128  0.00  0.00    -0.317 OA
HETATM   18  C   UNK     0     129.730 119.681  85.759  0.00  0.00    -0.008 A 
HETATM   19  C   UNK     0     131.721 118.191  87.578  0.00  0.00     0.072 A 
HETATM   20  C   UNK     0     128.735 120.426  84.849  0.00  0.00     0.030 C 
HETATM   21  O   UNK     0     128.772 117.210  93.914  0.00  0.00    -0.365 OA
HETATM   22  C   UNK     0     127.386 117.611  94.453  0.00  0.00     0.149 A 
HETATM   23  C   UNK     0     129.766 116.466  94.823  0.00  0.00     0.151 A 
HETATM   24  C   UNK     0     129.376 116.121  96.272  0.00  0.00     0.021 A 
HETATM   25  C   UNK     0     126.995 117.265  95.902  0.00  0.00     0.030 A 
HETATM   26  C   UNK     0     127.990 116.521  96.812  0.00  0.00     0.004 A 
HETATM   27  C   UNK     0     131.152 116.066  94.283  0.00  0.00     0.071 C 
HETATM   28  C   UNK     0     132.148 115.321  95.193  0.00  0.00     0.066 C 
HETATM   29  C   UNK     0     133.925 115.266  93.203  0.00  0.00     0.028 C 
HETATM   30  C   UNK     0     133.534 114.921  94.652  0.00  0.00    -0.025 C 
HETATM   31  C   UNK     0     134.529 114.176  95.562  0.00  0.00     0.028 C 
HETATM   32  C   UNK     0     125.610 117.665  96.442  0.00  0.00     0.003 C 
HETATM   33  C   UNK     0     132.716 117.446  88.487  0.00  0.00    -0.021 C 
HETATM   34  C   UNK     0     132.325 117.101  89.935  0.00  0.00     0.028 C 
HETATM   35  C   UNK     0     134.102 117.046  87.947  0.00  0.00     0.048 C 
HETATM   36  C   UNK     0     135.097 116.302  88.856  0.00  0.00    -0.012 C 
HETATM   37  C   UNK     0     134.706 115.957  90.305  0.00  0.00     0.029 C 
HETATM   38  C   UNK     0     136.483 115.902  88.316  0.00  0.00     0.148 C 
HETATM   39  C   UNK     0     137.478 115.157  89.225  0.00  0.00     0.144 A 
HETATM   40  O   UNK     0     137.087 114.812  90.674  0.00  0.00    -0.322 OA
HETATM   41  O   UNK     0     136.874 116.247  86.866  0.00  0.00    -0.189 OA
HETATM   42  C   UNK     0     138.864 114.757  88.685  0.00  0.00     0.151 A 
HETATM   43  C   UNK     0     135.931 113.759  95.052  0.00  0.00     0.030 C 
HETATM   44  C   UNK     0     137.087 112.894  96.108  0.00  0.00    -0.026 C 
HETATM   45  C   UNK     0     139.859 114.013  89.594  0.00  0.00     0.004 A 
HETATM   46  C   UNK     0     139.420 113.682  91.059  0.00  0.00     0.002 A 
HETATM   47  C   UNK     0     138.082 114.067  91.583  0.00  0.00     0.175 A 
HETATM   48  O   UNK     0     139.254 115.102  87.236  0.00  0.00    -0.188 OA
HETATM   49  C   UNK     0     138.353 112.535  95.597  0.00  0.00    -0.005 C 
HETATM   50  C   UNK     0     138.645 112.955  94.056  0.00  0.00    -0.005 C 
HETATM   51  C   UNK     0     139.775 112.920  92.790  0.00  0.00    -0.024 C 
HETATM   52  C   UNK     0     141.217 113.637  89.018  0.00  0.00     0.033 C 
HETATM   53  O   UNK     0     127.717 117.956  93.076  0.00  0.00     0.000 OA
HETATM   54  C   UNK     0     141.141 112.251  93.037  0.00  0.00     0.031 C 
ENDROOT
BRANCH  16  55
HETATM   55  C   UNK     0     131.507 119.626  83.769  0.00  0.00     0.072 A 
HETATM   56  C   UNK     0     131.167 118.650  82.627  0.00  0.00     0.007 A 
HETATM   57  C   UNK     0     131.558 118.996  81.178  0.00  0.00     0.056 A 
HETATM   58  C   UNK     0     132.288 120.317  80.870  0.00  0.00     0.127 A 
HETATM   59  C   UNK     0     132.627 121.292  82.012  0.00  0.00     0.093 A 
HETATM   60  O   UNK     0     132.679 120.661  79.422  0.00  0.00    -0.193 OA
HETATM   61  C   UNK     0     132.237 120.947  83.462  0.00  0.00     0.053 A 
BRANCH  59  62
HETATM   62  O   UNK     0     133.357 122.613  81.706  0.00  0.00    -0.331 OA
HETATM   63  C   UNK     0     133.274 123.787  82.699  0.00  0.00     0.181 C 
ENDBRANCH  59  62
ENDBRANCH  16  55
BRANCH  28  64
HETATM   64  O   UNK     0     131.757 114.976  96.642  0.00  0.00    -0.333 OA
HETATM   65  C   UNK     0     132.402 115.736  97.814  0.00  0.00     0.181 C 
ENDBRANCH  28  64
TORSDOF 3
ENDMDL
MODEL 6
REMARK VINA RESULT:      -9.3     32.285     39.606
REMARK  3 active torsions:
REMARK  status: ('A' for Active; 'I' for Inactive)
REMARK    1  A    between atoms: C_16  and  C_21 
REMARK    2  A    between atoms: C_24  and  O_62 
REMARK    3  A    between atoms: C_34  and  O_35 
ROOT
HETATM    1  C   UNK     0     101.796 125.362 102.049  0.00  0.00     0.018 A 
HETATM    2  C   UNK     0     100.520 125.108 102.872  0.00  0.00     0.166 A 
HETATM    3  C   UNK     0     101.940 124.750 100.643  0.00  0.00     0.004 A 
HETATM    4  N   UNK     0      99.388 124.241 102.290  0.00  0.00    -0.347 N 
HETATM    5  C   UNK     0     100.808 123.883 100.061  0.00  0.00     0.024 A 
HETATM    6  C   UNK     0      99.532 123.629 100.885  0.00  0.00     0.099 A 
HETATM    7  C   UNK     0     100.377 125.720 104.278  0.00  0.00     0.281 C 
HETATM    8  O   UNK     0      99.100 125.465 105.102  0.00  0.00    -0.189 OA
HETATM    9  O   UNK     0      97.967 124.599 104.520  0.00  0.00    -0.196 OA
HETATM   10  C   UNK     0      98.112 123.987 103.115  0.00  0.00     0.265 A 
HETATM   11  C   UNK     0      96.979 123.120 102.533  0.00  0.00     0.231 A 
HETATM   12  O   UNK     0      97.123 122.508 101.127  0.00  0.00    -0.216 OA
HETATM   13  C   UNK     0     101.365 127.199 106.267  0.00  0.00     0.175 A 
HETATM   14  C   UNK     0     100.089 126.945 107.090  0.00  0.00     0.075 A 
HETATM   15  O   UNK     0     101.509 126.587 104.861  0.00  0.00    -0.336 OA
HETATM   16  C   UNK     0     102.353 128.677 108.254  0.00  0.00     0.065 A 
HETATM   17  O   UNK     0     101.077 128.423 109.078  0.00  0.00    -0.317 OA
HETATM   18  C   UNK     0     102.497 128.065 106.848  0.00  0.00    -0.008 A 
HETATM   19  C   UNK     0      99.944 127.556 108.496  0.00  0.00     0.072 A 
HETATM   20  C   UNK     0     103.774 128.320 106.025  0.00  0.00     0.030 C 
HETATM   21  O   UNK     0      95.559 123.477 104.762  0.00  0.00    -0.365 OA
HETATM   22  C   UNK     0      95.704 122.866 103.356  0.00  0.00     0.149 A 
HETATM   23  C   UNK     0      94.284 123.223 105.585  0.00  0.00     0.151 A 
HETATM   24  C   UNK     0      93.152 122.357 105.004  0.00  0.00     0.021 A 
HETATM   25  C   UNK     0      94.571 121.999 102.774  0.00  0.00     0.030 A 
HETATM   26  C   UNK     0      93.295 121.745 103.598  0.00  0.00     0.004 A 
HETATM   27  C   UNK     0      94.140 123.835 106.991  0.00  0.00     0.071 C 
HETATM   28  C   UNK     0      92.863 123.581 107.816  0.00  0.00     0.066 C 
HETATM   29  C   UNK     0      93.852 125.060 109.804  0.00  0.00     0.028 C 
HETATM   30  C   UNK     0      92.719 124.193 109.222  0.00  0.00    -0.025 C 
HETATM   31  C   UNK     0      91.443 123.939 110.045  0.00  0.00     0.028 C 
HETATM   32  C   UNK     0      94.716 121.387 101.369  0.00  0.00     0.003 C 
HETATM   33  C   UNK     0      98.668 127.302 109.320  0.00  0.00    -0.021 C 
HETATM   34  C   UNK     0      97.536 126.436 108.738  0.00  0.00     0.028 C 
HETATM   35  C   UNK     0      98.525 127.914 110.726  0.00  0.00     0.048 C 
HETATM   36  C   UNK     0      97.248 127.660 111.550  0.00  0.00    -0.012 C 
HETATM   37  C   UNK     0      96.116 126.793 110.968  0.00  0.00     0.029 C 
HETATM   38  C   UNK     0      97.105 128.272 112.956  0.00  0.00     0.148 C 
HETATM   39  C   UNK     0      95.829 128.018 113.780  0.00  0.00     0.144 A 
HETATM   40  O   UNK     0      94.696 127.151 113.197  0.00  0.00    -0.322 OA
HETATM   41  O   UNK     0      98.237 129.139 113.538  0.00  0.00    -0.189 OA
HETATM   42  C   UNK     0      95.685 128.630 115.186  0.00  0.00     0.151 A 
HETATM   43  C   UNK     0      91.265 124.538 111.462  0.00  0.00     0.030 C 
HETATM   44  C   UNK     0      89.782 124.243 112.419  0.00  0.00    -0.026 C 
HETATM   45  C   UNK     0      94.409 128.376 116.009  0.00  0.00     0.004 A 
HETATM   46  C   UNK     0      93.284 127.489 115.379  0.00  0.00     0.002 A 
HETATM   47  C   UNK     0      93.420 126.896 114.021  0.00  0.00     0.175 A 
HETATM   48  O   UNK     0      96.817 129.496 115.767  0.00  0.00    -0.188 OA
HETATM   49  C   UNK     0      89.667 124.812 113.706  0.00  0.00    -0.005 C 
HETATM   50  C   UNK     0      90.928 125.705 114.206  0.00  0.00    -0.005 C 
HETATM   51  C   UNK     0      91.557 126.646 115.471  0.00  0.00    -0.024 C 
HETATM   52  C   UNK     0      94.311 129.001 117.394  0.00  0.00     0.033 C 
HETATM   53  O   UNK     0      96.798 123.680 103.871  0.00  0.00     0.000 OA
HETATM   54  C   UNK     0      90.711 126.832 116.745  0.00  0.00     0.031 C 
ENDROOT
BRANCH  16  55
HETATM   55  C   UNK     0     103.486 129.544 108.836  0.00  0.00     0.072 A 
HETATM   56  C   UNK     0     103.921 130.831 108.111  0.00  0.00     0.007 A 
HETATM   57  C   UNK     0     105.053 131.698 108.693  0.00  0.00     0.056 A 
HETATM   58  C   UNK     0     105.750 131.278 110.001  0.00  0.00     0.127 A 
HETATM   59  C   UNK     0     105.315 129.991 110.726  0.00  0.00     0.093 A 
HETATM   60  O   UNK     0     106.882 132.144 110.582  0.00  0.00    -0.193 OA
HETATM   61  C   UNK     0     104.183 129.124 110.144  0.00  0.00     0.053 A 
BRANCH  59  62
HETATM   62  O   UNK     0     106.012 129.570 112.033  0.00  0.00    -0.331 OA
HETATM   63  C   UNK     0     106.961 128.357 112.044  0.00  0.00     0.181 C 
ENDBRANCH  59  62
ENDBRANCH  16  55
BRANCH  28  64
HETATM   64  O   UNK     0      91.731 122.714 107.233  0.00  0.00    -0.333 OA
HETATM   65  C   UNK     0      90.406 123.368 106.802  0.00  0.00     0.181 C 
ENDBRANCH  28  64
TORSDOF 3
ENDMDL
MODEL 7
REMARK VINA RESULT:      -9.3     19.936     28.785
REMARK  3 active torsions:
REMARK  status: ('A' for Active; 'I' for Inactive)
REMARK    1  A    between atoms: C_16  and  C_21 
REMARK    2  A    between atoms: C_24  and  O_62 
REMARK    3  A    between atoms: C_34  and  O_35 
ROOT
HETATM    1  C   UNK     0     110.027 123.040 105.015  0.00  0.00     0.018 A 
HETATM    2  C   UNK     0     109.975 123.357 103.509  0.00  0.00     0.166 A 
HETATM    3  C   UNK     0     111.337 122.536 105.650  0.00  0.00     0.004 A 
HETATM    4  N   UNK     0     111.232 123.171 102.638  0.00  0.00    -0.347 N 
HETATM    5  C   UNK     0     112.593 122.350 104.780  0.00  0.00     0.024 A 
HETATM    6  C   UNK     0     112.540 122.668 103.274  0.00  0.00     0.099 A 
HETATM    7  C   UNK     0     108.665 123.861 102.873  0.00  0.00     0.281 C 
HETATM    8  O   UNK     0     108.613 124.179 101.367  0.00  0.00    -0.189 OA
HETATM    9  O   UNK     0     109.869 123.993 100.496  0.00  0.00    -0.196 OA
HETATM   10  C   UNK     0     111.178 123.489 101.132  0.00  0.00     0.265 A 
HETATM   11  C   UNK     0     112.435 123.303 100.261  0.00  0.00     0.231 A 
HETATM   12  O   UNK     0     113.744 122.799 100.896  0.00  0.00    -0.216 OA
HETATM   13  C   UNK     0     106.099 124.551 103.108  0.00  0.00     0.175 A 
HETATM   14  C   UNK     0     106.046 124.869 101.602  0.00  0.00     0.075 A 
HETATM   15  O   UNK     0     107.408 124.047 103.744  0.00  0.00    -0.336 OA
HETATM   16  C   UNK     0     103.533 125.241 103.343  0.00  0.00     0.065 A 
HETATM   17  O   UNK     0     103.481 125.559 101.837  0.00  0.00    -0.317 OA
HETATM   18  C   UNK     0     104.843 124.737 103.979  0.00  0.00    -0.008 A 
HETATM   19  C   UNK     0     104.738 125.372 100.966  0.00  0.00     0.072 A 
HETATM   20  C   UNK     0     104.894 124.420 105.485  0.00  0.00     0.030 C 
HETATM   21  O   UNK     0     111.074 124.124  98.119  0.00  0.00    -0.365 OA
HETATM   22  C   UNK     0     112.382 123.620  98.756  0.00  0.00     0.149 A 
HETATM   23  C   UNK     0     111.021 124.441  96.614  0.00  0.00     0.151 A 
HETATM   24  C   UNK     0     112.277 124.255  95.744  0.00  0.00     0.021 A 
HETATM   25  C   UNK     0     113.639 123.434  97.885  0.00  0.00     0.030 A 
HETATM   26  C   UNK     0     113.587 123.751  96.379  0.00  0.00     0.004 A 
HETATM   27  C   UNK     0     109.712 124.945  95.979  0.00  0.00     0.071 C 
HETATM   28  C   UNK     0     109.659 125.262  94.472  0.00  0.00     0.066 C 
HETATM   29  C   UNK     0     107.093 125.952  94.707  0.00  0.00     0.028 C 
HETATM   30  C   UNK     0     108.350 125.766  93.836  0.00  0.00    -0.025 C 
HETATM   31  C   UNK     0     108.297 126.084  92.330  0.00  0.00     0.028 C 
HETATM   32  C   UNK     0     114.948 122.930  98.521  0.00  0.00     0.003 C 
HETATM   33  C   UNK     0     104.685 125.690  99.460  0.00  0.00    -0.021 C 
HETATM   34  C   UNK     0     105.941 125.504  98.589  0.00  0.00     0.028 C 
HETATM   35  C   UNK     0     103.375 126.194  98.824  0.00  0.00     0.048 C 
HETATM   36  C   UNK     0     103.323 126.511  97.318  0.00  0.00    -0.012 C 
HETATM   37  C   UNK     0     104.580 126.325  96.448  0.00  0.00     0.029 C 
HETATM   38  C   UNK     0     102.013 127.015  96.683  0.00  0.00     0.148 C 
HETATM   39  C   UNK     0     101.961 127.332  95.177  0.00  0.00     0.144 A 
HETATM   40  O   UNK     0     103.218 127.146  94.306  0.00  0.00    -0.322 OA
HETATM   41  O   UNK     0     100.756 127.201  97.553  0.00  0.00    -0.189 OA
HETATM   42  C   UNK     0     100.651 127.836  94.541  0.00  0.00     0.151 A 
HETATM   43  C   UNK     0     106.998 126.592  91.657  0.00  0.00     0.030 C 
HETATM   44  C   UNK     0     106.937 126.961  89.908  0.00  0.00    -0.026 C 
HETATM   45  C   UNK     0     100.599 128.154  93.035  0.00  0.00     0.004 A 
HETATM   46  C   UNK     0     101.899 127.950  92.189  0.00  0.00     0.002 A 
HETATM   47  C   UNK     0     103.165 127.464  92.800  0.00  0.00     0.175 A 
HETATM   48  O   UNK     0      99.395 128.022  95.412  0.00  0.00    -0.188 OA
HETATM   49  C   UNK     0     105.728 127.422  89.342  0.00  0.00    -0.005 C 
HETATM   50  C   UNK     0     104.476 127.576  90.364  0.00  0.00    -0.005 C 
HETATM   51  C   UNK     0     102.843 128.015  90.513  0.00  0.00    -0.024 C 
HETATM   52  C   UNK     0      99.283 128.649  92.450  0.00  0.00     0.033 C 
HETATM   53  O   UNK     0     111.216 123.783  99.614  0.00  0.00     0.000 OA
HETATM   54  C   UNK     0     102.086 128.485  89.256  0.00  0.00     0.031 C 
ENDROOT
BRANCH  16  55
HETATM   55  C   UNK     0     102.276 125.427 104.214  0.00  0.00     0.072 A 
HETATM   56  C   UNK     0     102.175 126.627 105.174  0.00  0.00     0.007 A 
HETATM   57  C   UNK     0     100.919 126.814 106.044  0.00  0.00     0.056 A 
HETATM   58  C   UNK     0      99.762 125.800 105.955  0.00  0.00     0.127 A 
HETATM   59  C   UNK     0      99.863 124.600 104.995  0.00  0.00     0.093 A 
HETATM   60  O   UNK     0      98.506 125.987 106.825  0.00  0.00    -0.193 OA
HETATM   61  C   UNK     0     101.120 124.414 104.124  0.00  0.00     0.053 A 
BRANCH  59  62
HETATM   62  O   UNK     0      98.708 123.587 104.905  0.00  0.00    -0.331 OA
HETATM   63  C   UNK     0      98.742 122.472 103.843  0.00  0.00     0.181 C 
ENDBRANCH  59  62
ENDBRANCH  16  55
BRANCH  28  64
HETATM   64  O   UNK     0     110.916 125.076  93.601  0.00  0.00    -0.333 OA
HETATM   65  C   UNK     0     111.668 126.306  93.063  0.00  0.00     0.181 C 
ENDBRANCH  28  64
TORSDOF 3
ENDMDL
MODEL 8
REMARK VINA RESULT:      -9.3      9.135     16.224
REMARK  3 active torsions:
REMARK  status: ('A' for Active; 'I' for Inactive)
REMARK    1  A    between atoms: C_16  and  C_21 
REMARK    2  A    between atoms: C_24  and  O_62 
REMARK    3  A    between atoms: C_34  and  O_35 
ROOT
HETATM    1  C   UNK     0     133.847  98.447 103.658  0.00  0.00     0.018 A 
HETATM    2  C   UNK     0     133.859  99.752 102.840  0.00  0.00     0.166 A 
HETATM    3  C   UNK     0     134.548  97.189 103.111  0.00  0.00     0.004 A 
HETATM    4  N   UNK     0     134.573  99.799 101.476  0.00  0.00    -0.347 N 
HETATM    5  C   UNK     0     135.260  97.237 101.747  0.00  0.00     0.024 A 
HETATM    6  C   UNK     0     135.273  98.542 100.930  0.00  0.00     0.099 A 
HETATM    7  C   UNK     0     133.159 101.010 103.387  0.00  0.00     0.281 C 
HETATM    8  O   UNK     0     133.171 102.315 102.570  0.00  0.00    -0.189 OA
HETATM    9  O   UNK     0     133.884 102.363 101.205  0.00  0.00    -0.196 OA
HETATM   10  C   UNK     0     134.585 101.105 100.659  0.00  0.00     0.265 A 
HETATM   11  C   UNK     0     135.298 101.153  99.295  0.00  0.00     0.231 A 
HETATM   12  O   UNK     0     135.999  99.895  98.748  0.00  0.00    -0.216 OA
HETATM   13  C   UNK     0     131.745 102.220 105.299  0.00  0.00     0.175 A 
HETATM   14  C   UNK     0     131.757 103.525 104.482  0.00  0.00     0.075 A 
HETATM   15  O   UNK     0     132.445 100.962 104.752  0.00  0.00    -0.336 OA
HETATM   16  C   UNK     0     130.331 103.430 107.210  0.00  0.00     0.065 A 
HETATM   17  O   UNK     0     130.344 104.735 106.392  0.00  0.00    -0.317 OA
HETATM   18  C   UNK     0     131.032 102.172 106.662  0.00  0.00    -0.008 A 
HETATM   19  C   UNK     0     131.057 104.783 105.027  0.00  0.00     0.072 A 
HETATM   20  C   UNK     0     131.019 100.867 107.480  0.00  0.00     0.030 C 
HETATM   21  O   UNK     0     134.610 103.715  99.024  0.00  0.00    -0.365 OA
HETATM   22  C   UNK     0     135.311 102.457  98.478  0.00  0.00     0.149 A 
HETATM   23  C   UNK     0     134.623 105.020  98.207  0.00  0.00     0.151 A 
HETATM   24  C   UNK     0     135.336 105.068  96.843  0.00  0.00     0.021 A 
HETATM   25  C   UNK     0     136.024 102.505  97.114  0.00  0.00     0.030 A 
HETATM   26  C   UNK     0     136.036 103.810  96.296  0.00  0.00     0.004 A 
HETATM   27  C   UNK     0     133.922 106.278  98.754  0.00  0.00     0.071 C 
HETATM   28  C   UNK     0     133.935 107.584  97.936  0.00  0.00     0.066 C 
HETATM   29  C   UNK     0     132.521 108.794  99.848  0.00  0.00     0.028 C 
HETATM   30  C   UNK     0     133.234 108.841  98.483  0.00  0.00    -0.025 C 
HETATM   31  C   UNK     0     133.246 110.147  97.666  0.00  0.00     0.028 C 
HETATM   32  C   UNK     0     136.724 101.247  96.567  0.00  0.00     0.003 C 
HETATM   33  C   UNK     0     131.069 106.089 104.210  0.00  0.00    -0.021 C 
HETATM   34  C   UNK     0     131.782 106.136 102.847  0.00  0.00     0.028 C 
HETATM   35  C   UNK     0     130.369 107.346 104.757  0.00  0.00     0.048 C 
HETATM   36  C   UNK     0     130.381 108.652 103.940  0.00  0.00    -0.012 C 
HETATM   37  C   UNK     0     131.094 108.699 102.576  0.00  0.00     0.029 C 
HETATM   38  C   UNK     0     129.680 109.909 104.487  0.00  0.00     0.148 C 
HETATM   39  C   UNK     0     129.693 111.215 103.670  0.00  0.00     0.144 A 
HETATM   40  O   UNK     0     130.406 111.262 102.305  0.00  0.00    -0.322 OA
HETATM   41  O   UNK     0     128.967 109.862 105.851  0.00  0.00    -0.189 OA
HETATM   42  C   UNK     0     128.992 112.472 104.217  0.00  0.00     0.151 A 
HETATM   43  C   UNK     0     132.552 111.430  98.185  0.00  0.00     0.030 C 
HETATM   44  C   UNK     0     132.567 112.947  97.235  0.00  0.00    -0.026 C 
HETATM   45  C   UNK     0     129.005 113.778 103.400  0.00  0.00     0.004 A 
HETATM   46  C   UNK     0     129.741 113.780 102.019  0.00  0.00     0.002 A 
HETATM   47  C   UNK     0     130.419 112.567 101.488  0.00  0.00     0.175 A 
HETATM   48  O   UNK     0     128.279 112.425 105.580  0.00  0.00    -0.188 OA
HETATM   49  C   UNK     0     131.919 114.090  97.752  0.00  0.00    -0.005 C 
HETATM   50  C   UNK     0     131.204 113.912  99.199  0.00  0.00    -0.005 C 
HETATM   51  C   UNK     0     130.305 114.682 100.415  0.00  0.00    -0.024 C 
HETATM   52  C   UNK     0     128.299 114.996 103.979  0.00  0.00     0.033 C 
HETATM   53  O   UNK     0     134.647 102.371  99.773  0.00  0.00     0.000 OA
HETATM   54  C   UNK     0     129.924 116.163 100.227  0.00  0.00     0.031 C 
ENDROOT
BRANCH  16  55
HETATM   55  C   UNK     0     129.618 103.383 108.574  0.00  0.00     0.072 A 
HETATM   56  C   UNK     0     130.349 103.860 109.842  0.00  0.00     0.007 A 
HETATM   57  C   UNK     0     129.636 103.813 111.206  0.00  0.00     0.056 A 
HETATM   58  C   UNK     0     128.191 103.288 111.303  0.00  0.00     0.127 A 
HETATM   59  C   UNK     0     127.460 102.810 110.034  0.00  0.00     0.093 A 
HETATM   60  O   UNK     0     127.479 103.241 112.666  0.00  0.00    -0.193 OA
HETATM   61  C   UNK     0     128.173 102.857 108.670  0.00  0.00     0.053 A 
BRANCH  59  62
HETATM   62  O   UNK     0     126.016 102.285 110.130  0.00  0.00    -0.331 OA
HETATM   63  C   UNK     0     125.624 100.975 109.420  0.00  0.00     0.181 C 
ENDBRANCH  59  62
ENDBRANCH  16  55
BRANCH  28  64
HETATM   64  O   UNK     0     134.648 107.631  96.572  0.00  0.00    -0.333 OA
HETATM   65  C   UNK     0     135.919 108.480  96.398  0.00  0.00     0.181 C 
ENDBRANCH  28  64
TORSDOF 3
ENDMDL
MODEL 9
REMARK VINA RESULT:      -9.2     40.871     48.092
REMARK  3 active torsions:
REMARK  status: ('A' for Active; 'I' for Inactive)
REMARK    1  A    between atoms: C_16  and  C_21 
REMARK    2  A    between atoms: C_24  and  O_62 
REMARK    3  A    between atoms: C_34  and  O_35 
ROOT
HETATM    1  C   UNK     0     104.374  90.356 129.029  0.00  0.00     0.018 A 
HETATM    2  C   UNK     0     103.626  91.701 129.090  0.00  0.00     0.166 A 
HETATM    3  C   UNK     0     103.730  89.089 129.622  0.00  0.00     0.004 A 
HETATM    4  N   UNK     0     102.234  91.779 129.743  0.00  0.00    -0.347 N 
HETATM    5  C   UNK     0     102.338  89.167 130.275  0.00  0.00     0.024 A 
HETATM    6  C   UNK     0     101.590  90.512 130.335  0.00  0.00     0.099 A 
HETATM    7  C   UNK     0     104.271  92.968 128.497  0.00  0.00     0.281 C 
HETATM    8  O   UNK     0     103.523  94.313 128.557  0.00  0.00    -0.189 OA
HETATM    9  O   UNK     0     102.130  94.391 129.211  0.00  0.00    -0.196 OA
HETATM   10  C   UNK     0     101.487  93.124 129.803  0.00  0.00     0.265 A 
HETATM   11  C   UNK     0     100.093  93.202 130.456  0.00  0.00     0.231 A 
HETATM   12  O   UNK     0      99.449  91.935 131.049  0.00  0.00    -0.216 OA
HETATM   13  C   UNK     0     106.309  94.157 127.251  0.00  0.00     0.175 A 
HETATM   14  C   UNK     0     105.561  95.502 127.311  0.00  0.00     0.075 A 
HETATM   15  O   UNK     0     105.664  92.890 127.843  0.00  0.00    -0.336 OA
HETATM   16  C   UNK     0     108.345  95.346 126.005  0.00  0.00     0.065 A 
HETATM   17  O   UNK     0     107.597  96.691 126.065  0.00  0.00    -0.317 OA
HETATM   18  C   UNK     0     107.700  94.079 126.598  0.00  0.00    -0.008 A 
HETATM   19  C   UNK     0     106.204  96.769 126.719  0.00  0.00     0.072 A 
HETATM   20  C   UNK     0     108.449  92.734 126.537  0.00  0.00     0.030 C 
HETATM   21  O   UNK     0      99.989  95.814 129.925  0.00  0.00    -0.365 OA
HETATM   22  C   UNK     0      99.346  94.546 130.517  0.00  0.00     0.149 A 
HETATM   23  C   UNK     0      99.242  97.158 129.985  0.00  0.00     0.151 A 
HETATM   24  C   UNK     0      97.850  97.236 130.638  0.00  0.00     0.021 A 
HETATM   25  C   UNK     0      97.953  94.624 131.170  0.00  0.00     0.030 A 
HETATM   26  C   UNK     0      97.205  95.969 131.231  0.00  0.00     0.004 A 
HETATM   27  C   UNK     0      99.887  98.425 129.392  0.00  0.00     0.071 C 
HETATM   28  C   UNK     0      99.138  99.770 129.453  0.00  0.00     0.066 C 
HETATM   29  C   UNK     0     101.175 100.960 128.206  0.00  0.00     0.028 C 
HETATM   30  C   UNK     0      99.783 101.037 128.860  0.00  0.00    -0.025 C 
HETATM   31  C   UNK     0      99.035 102.382 128.920  0.00  0.00     0.028 C 
HETATM   32  C   UNK     0      97.309  93.358 131.763  0.00  0.00     0.003 C 
HETATM   33  C   UNK     0     105.456  98.114 126.779  0.00  0.00    -0.021 C 
HETATM   34  C   UNK     0     104.064  98.192 127.432  0.00  0.00     0.028 C 
HETATM   35  C   UNK     0     106.101  99.381 126.186  0.00  0.00     0.048 C 
HETATM   36  C   UNK     0     105.353 100.726 126.247  0.00  0.00    -0.012 C 
HETATM   37  C   UNK     0     103.960 100.804 126.900  0.00  0.00     0.029 C 
HETATM   38  C   UNK     0     105.997 101.993 125.654  0.00  0.00     0.148 C 
HETATM   39  C   UNK     0     105.249 103.338 125.715  0.00  0.00     0.144 A 
HETATM   40  O   UNK     0     103.857 103.415 126.368  0.00  0.00    -0.322 OA
HETATM   41  O   UNK     0     107.390 101.915 125.001  0.00  0.00    -0.189 OA
HETATM   42  C   UNK     0     105.894 104.605 125.122  0.00  0.00     0.151 A 
HETATM   43  C   UNK     0      99.652 103.676 128.335  0.00  0.00     0.030 C 
HETATM   44  C   UNK     0      98.783 105.238 128.405  0.00  0.00    -0.026 C 
HETATM   45  C   UNK     0     105.146 105.950 125.182  0.00  0.00     0.004 A 
HETATM   46  C   UNK     0     103.734 105.982 125.855  0.00  0.00     0.002 A 
HETATM   47  C   UNK     0     103.109 104.760 126.428  0.00  0.00     0.175 A 
HETATM   48  O   UNK     0     107.286 104.527 124.469  0.00  0.00    -0.188 OA
HETATM   49  C   UNK     0      99.389 106.390 127.856  0.00  0.00    -0.005 C 
HETATM   50  C   UNK     0     100.858 106.177 127.197  0.00  0.00    -0.005 C 
HETATM   51  C   UNK     0     102.154 106.934 126.404  0.00  0.00    -0.024 C 
HETATM   52  C   UNK     0     105.822 107.176 124.584  0.00  0.00     0.033 C 
HETATM   53  O   UNK     0     100.665  94.430 129.908  0.00  0.00     0.000 OA
HETATM   54  C   UNK     0     102.061 108.444 126.112  0.00  0.00     0.031 C 
ENDROOT
BRANCH  16  55
HETATM   55  C   UNK     0     109.738  95.268 125.352  0.00  0.00     0.072 A 
HETATM   56  C   UNK     0     109.864  95.059 123.831  0.00  0.00     0.007 A 
HETATM   57  C   UNK     0     111.257  94.982 123.178  0.00  0.00     0.056 A 
HETATM   58  C   UNK     0     112.523  95.113 124.045  0.00  0.00     0.127 A 
HETATM   59  C   UNK     0     112.397  95.321 125.565  0.00  0.00     0.093 A 
HETATM   60  O   UNK     0     113.915  95.035 123.391  0.00  0.00    -0.193 OA
HETATM   61  C   UNK     0     111.004  95.399 126.219  0.00  0.00     0.053 A 
BRANCH  59  62
HETATM   62  O   UNK     0     113.662  95.452 126.432  0.00  0.00    -0.331 OA
HETATM   63  C   UNK     0     114.440  96.781 126.464  0.00  0.00     0.181 C 
ENDBRANCH  59  62
ENDBRANCH  16  55
BRANCH  28  64
HETATM   64  O   UNK     0      97.745  99.848 130.106  0.00  0.00    -0.333 OA
HETATM   65  C   UNK     0      97.612 100.232 131.590  0.00  0.00     0.181 C 
ENDBRANCH  28  64
TORSDOF 3
ENDMDL
MODEL 10
REMARK VINA RESULT:      -9.2     39.634     47.497
REMARK  3 active torsions:
REMARK  status: ('A' for Active; 'I' for Inactive)
REMARK    1  A    between atoms: C_16  and  C_21 
REMARK    2  A    between atoms: C_24  and  O_62 
REMARK    3  A    between atoms: C_34  and  O_35 
ROOT
HETATM    1  C   UNK     0     101.014  82.978 105.816  0.00  0.00     0.018 A 
HETATM    2  C   UNK     0     102.143  83.334 106.801  0.00  0.00     0.166 A 
HETATM    3  C   UNK     0     100.883  83.742 104.485  0.00  0.00     0.004 A 
HETATM    4  N   UNK     0     103.143  84.454 106.453  0.00  0.00    -0.347 N 
HETATM    5  C   UNK     0     101.883  84.861 104.139  0.00  0.00     0.024 A 
HETATM    6  C   UNK     0     103.012  85.217 105.123  0.00  0.00     0.099 A 
HETATM    7  C   UNK     0     102.274  82.571 108.132  0.00  0.00     0.281 C 
HETATM    8  O   UNK     0     103.403  82.926 109.116  0.00  0.00    -0.189 OA
HETATM    9  O   UNK     0     104.404  84.046 108.770  0.00  0.00    -0.196 OA
HETATM   10  C   UNK     0     104.272  84.809 107.438  0.00  0.00     0.265 A 
HETATM   11  C   UNK     0     105.272  85.928 107.092  0.00  0.00     0.231 A 
HETATM   12  O   UNK     0     105.142  86.692 105.761  0.00  0.00    -0.216 OA
HETATM   13  C   UNK     0     101.405  80.688 109.810  0.00  0.00     0.175 A 
HETATM   14  C   UNK     0     102.534  81.043 110.794  0.00  0.00     0.075 A 
HETATM   15  O   UNK     0     101.274  81.451 108.479  0.00  0.00    -0.336 OA
HETATM   16  C   UNK     0     100.536  78.805 111.488  0.00  0.00     0.065 A 
HETATM   17  O   UNK     0     101.666  79.161 112.472  0.00  0.00    -0.317 OA
HETATM   18  C   UNK     0     100.405  79.569 110.157  0.00  0.00    -0.008 A 
HETATM   19  C   UNK     0     102.666  80.281 112.126  0.00  0.00     0.072 A 
HETATM   20  C   UNK     0      99.275  79.212 109.173  0.00  0.00     0.030 C 
HETATM   21  O   UNK     0     106.533  85.521 109.407  0.00  0.00    -0.365 OA
HETATM   22  C   UNK     0     106.402  86.284 108.075  0.00  0.00     0.149 A 
HETATM   23  C   UNK     0     107.662  85.877 110.390  0.00  0.00     0.151 A 
HETATM   24  C   UNK     0     108.661  86.995 110.044  0.00  0.00     0.021 A 
HETATM   25  C   UNK     0     107.401  87.403 107.728  0.00  0.00     0.030 A 
HETATM   26  C   UNK     0     108.531  87.759 108.713  0.00  0.00     0.004 A 
HETATM   27  C   UNK     0     107.792  85.113 111.722  0.00  0.00     0.071 C 
HETATM   28  C   UNK     0     108.923  85.469 112.707  0.00  0.00     0.066 C 
HETATM   29  C   UNK     0     108.054  83.586 114.385  0.00  0.00     0.028 C 
HETATM   30  C   UNK     0     109.053  84.705 114.038  0.00  0.00    -0.025 C 
HETATM   31  C   UNK     0     110.183  85.061 115.022  0.00  0.00     0.028 C 
HETATM   32  C   UNK     0     107.270  88.166 106.398  0.00  0.00     0.003 C 
HETATM   33  C   UNK     0     103.795  80.636 113.110  0.00  0.00    -0.021 C 
HETATM   34  C   UNK     0     104.795  81.755 112.763  0.00  0.00     0.028 C 
HETATM   35  C   UNK     0     103.926  79.873 114.441  0.00  0.00     0.048 C 
HETATM   36  C   UNK     0     105.055  80.228 115.425  0.00  0.00    -0.012 C 
HETATM   37  C   UNK     0     106.055  81.348 115.078  0.00  0.00     0.029 C 
HETATM   38  C   UNK     0     105.186  79.465 116.757  0.00  0.00     0.148 C 
HETATM   39  C   UNK     0     106.316  79.821 117.741  0.00  0.00     0.144 A 
HETATM   40  O   UNK     0     107.315  80.940 117.394  0.00  0.00    -0.322 OA
HETATM   41  O   UNK     0     104.186  78.345 117.104  0.00  0.00    -0.189 OA
HETATM   42  C   UNK     0     106.446  79.057 119.072  0.00  0.00     0.151 A 
HETATM   43  C   UNK     0     110.344  84.315 116.369  0.00  0.00     0.030 C 
HETATM   44  C   UNK     0     111.656  84.728 117.513  0.00  0.00    -0.026 C 
HETATM   45  C   UNK     0     107.576  79.413 120.056  0.00  0.00     0.004 A 
HETATM   46  C   UNK     0     108.568  80.557 119.663  0.00  0.00     0.002 A 
HETATM   47  C   UNK     0     108.445  81.296 118.378  0.00  0.00     0.175 A 
HETATM   48  O   UNK     0     105.447  77.938 119.419  0.00  0.00    -0.188 OA
HETATM   49  C   UNK     0     111.761  84.018 118.729  0.00  0.00    -0.005 C 
HETATM   50  C   UNK     0     110.648  82.862 118.977  0.00  0.00    -0.005 C 
HETATM   51  C   UNK     0     110.095  81.664 120.045  0.00  0.00    -0.024 C 
HETATM   52  C   UNK     0     107.666  78.632 121.360  0.00  0.00     0.033 C 
HETATM   53  O   UNK     0     105.436  85.232 108.366  0.00  0.00     0.000 OA
HETATM   54  C   UNK     0     110.846  81.455 121.374  0.00  0.00     0.031 C 
ENDROOT
BRANCH  16  55
HETATM   55  C   UNK     0      99.536  77.686 111.835  0.00  0.00     0.072 A 
HETATM   56  C   UNK     0      99.926  76.212 111.620  0.00  0.00     0.007 A 
HETATM   57  C   UNK     0      98.927  75.092 111.967  0.00  0.00     0.056 A 
HETATM   58  C   UNK     0      97.537  75.447 112.529  0.00  0.00     0.127 A 
HETATM   59  C   UNK     0      97.147  76.921 112.744  0.00  0.00     0.093 A 
HETATM   60  O   UNK     0      96.539  74.328 112.876  0.00  0.00    -0.193 OA
HETATM   61  C   UNK     0      98.147  78.041 112.397  0.00  0.00     0.053 A 
BRANCH  59  62
HETATM   62  O   UNK     0      95.759  77.276 113.306  0.00  0.00    -0.331 OA
HETATM   63  C   UNK     0      95.605  78.446 114.296  0.00  0.00     0.181 C 
ENDBRANCH  59  62
ENDBRANCH  16  55
BRANCH  28  64
HETATM   64  O   UNK     0     109.922  86.589 112.359  0.00  0.00    -0.333 OA
HETATM   65  C   UNK     0     111.374  86.236 111.990  0.00  0.00     0.181 C 
ENDBRANCH  28  64
TORSDOF 3
ENDMDL
