REMARK  2 active torsions:
REMARK  status: ('A' for Active; 'I' for Inactive)
REMARK    1  A    between atoms: S_1  and  O_7 
REMARK    2  A    between atoms: O_7  and  C_18 
ROOT
HETATM    1  O   UNK     0       8.338  -1.536   0.000  0.00  0.00    -0.342 OA
HETATM    2  O   UNK     0       9.349   2.271   0.000  0.00  0.00     0.000 OA
HETATM    3  O   UNK     0      10.485  -0.296   0.000  0.00  0.00    -0.329 OA
HETATM    4  O   UNK     0       5.225   0.262   0.000  0.00  0.00    -0.343 OA
HETATM    5  O   UNK     0       5.225   2.740   0.000  0.00  0.00    -0.344 OA
HETATM    6  C   UNK     0       8.016  -0.039   0.000  0.00  0.00     0.202 A 
HETATM    7  C   UNK     0       6.682   0.731   0.000  0.00  0.00     0.187 A 
HETATM    8  C   UNK     0       9.349   0.731   0.000  0.00  0.00     0.185 A 
HETATM    9  C   UNK     0       6.682   2.271   0.000  0.00  0.00     0.168 A 
HETATM   10  C   UNK     0       8.016   3.041   0.000  0.00  0.00     0.024 A 
HETATM   11  C   UNK     0       9.860  -1.694   0.000  0.00  0.00     0.187 A 
HETATM   12  C   UNK     0       4.326   1.501   0.000  0.00  0.00     0.186 A 
HETATM   13  C   UNK     0      10.683   1.501   0.000  0.00  0.00     0.143 A 
HETATM   14  C   UNK     0      11.267  -2.321   0.000  0.00  0.00     0.061 C 
HETATM   15  C   UNK     0       9.700  -3.226   0.000  0.00  0.00     0.061 C 
HETATM   16  C   UNK     0       3.080   0.596   0.000  0.00  0.00     0.061 C 
HETATM   17  C   UNK     0       3.080   2.406   0.000  0.00  0.00     0.061 C 
ENDROOT
BRANCH  13  18
HETATM   18  O   UNK     0      12.017   0.731   0.000  0.00  0.00    -0.212 OA
BRANCH  18  19
HETATM   19  S   UNK     0      13.351   1.501   0.000  0.00  0.00     0.406 S 
HETATM   20  O   UNK     0      14.121   0.167   0.000  0.00  0.00    -0.172 OA
HETATM   21  O   UNK     0      12.581   2.835   0.000  0.00  0.00    -0.172 OA
HETATM   22  N   UNK     0      14.684   2.271   0.000  0.00  0.00    -0.021 N 
ENDBRANCH  18  19
ENDBRANCH  13  18
TORSDOF 2
