MODEL 1
REMARK VINA RESULT:      -4.1      0.000      0.000
REMARK  5 active torsions:
REMARK  status: ('A' for Active; 'I' for Inactive)
REMARK    1  A    between atoms: C_2  and  C_3 
REMARK    2  A    between atoms: C_3  and  C_4 
REMARK    3  A    between atoms: C_4  and  C_8 
REMARK    4  A    between atoms: C_4  and  C_5 
REMARK    5  A    between atoms: C_6  and  C_8 
ROOT
HETATM    1  C   UNK     0      80.977 100.337 108.452  0.00  0.00     0.087 C 
ENDROOT
BRANCH   1   2
HETATM    2  C   UNK     0      80.575  99.542 107.195  0.00  0.00     0.011 C 
BRANCH   2   3
HETATM    3  C   UNK     0      79.567  98.383 107.305  0.00  0.00     0.001 C 
HETATM    4  C   UNK     0      78.778  98.171 108.610  0.00  0.00     0.000 C 
ENDBRANCH   2   3
ENDBRANCH   1   2
BRANCH   1   5
HETATM    5  C   UNK     0      80.304 101.688 108.756  0.00  0.00     0.011 C 
BRANCH   5   6
HETATM    6  C   UNK     0      79.401 102.354 107.700  0.00  0.00     0.001 C 
HETATM    7  C   UNK     0      77.921 101.944 107.584  0.00  0.00     0.000 C 
ENDBRANCH   5   6
ENDBRANCH   1   5
BRANCH   1   8
HETATM    8  C   UNK     0      82.050  99.780 109.404  0.00  0.00     0.185 C 
HETATM    9  O   UNK     0      83.514 100.241 109.269  0.00  0.00    -0.647 OA
HETATM   10  O   UNK     0      81.662  98.761 110.491  0.00  0.00    -0.647 OA
ENDBRANCH   1   8
TORSDOF 5
ENDMDL
MODEL 2
REMARK VINA RESULT:      -4.0     20.274     21.583
REMARK  5 active torsions:
REMARK  status: ('A' for Active; 'I' for Inactive)
REMARK    1  A    between atoms: C_2  and  C_3 
REMARK    2  A    between atoms: C_3  and  C_4 
REMARK    3  A    between atoms: C_4  and  C_8 
REMARK    4  A    between atoms: C_4  and  C_5 
REMARK    5  A    between atoms: C_6  and  C_8 
ROOT
HETATM    1  C   UNK     0      91.312  81.851 106.857  0.00  0.00     0.087 C 
ENDROOT
BRANCH   1   2
HETATM    2  C   UNK     0      92.147  80.911 105.968  0.00  0.00     0.011 C 
BRANCH   2   3
HETATM    3  C   UNK     0      92.192  81.129 104.444  0.00  0.00     0.001 C 
HETATM    4  C   UNK     0      93.491  81.614 103.774  0.00  0.00     0.000 C 
ENDBRANCH   2   3
ENDBRANCH   1   2
BRANCH   1   5
HETATM    5  C   UNK     0      91.830  83.264 107.183  0.00  0.00     0.011 C 
BRANCH   5   6
HETATM    6  C   UNK     0      93.307  83.620 106.928  0.00  0.00     0.001 C 
HETATM    7  C   UNK     0      93.812  85.050 107.199  0.00  0.00     0.000 C 
ENDBRANCH   5   6
ENDBRANCH   1   5
BRANCH   1   8
HETATM    8  C   UNK     0      89.959  81.378 107.419  0.00  0.00     0.185 C 
HETATM    9  O   UNK     0      89.816  79.953 107.986  0.00  0.00    -0.647 OA
HETATM   10  O   UNK     0      88.748  82.330 107.414  0.00  0.00    -0.647 OA
ENDBRANCH   1   8
TORSDOF 5
ENDMDL
MODEL 3
REMARK VINA RESULT:      -3.9      8.022      9.260
REMARK  5 active torsions:
REMARK  status: ('A' for Active; 'I' for Inactive)
REMARK    1  A    between atoms: C_2  and  C_3 
REMARK    2  A    between atoms: C_3  and  C_4 
REMARK    3  A    between atoms: C_4  and  C_8 
REMARK    4  A    between atoms: C_4  and  C_5 
REMARK    5  A    between atoms: C_6  and  C_8 
ROOT
HETATM    1  C   UNK     0      78.632 107.289 113.386  0.00  0.00     0.087 C 
ENDROOT
BRANCH   1   2
HETATM    2  C   UNK     0      78.959 106.251 112.295  0.00  0.00     0.011 C 
BRANCH   2   3
HETATM    3  C   UNK     0      80.405 105.752 112.116  0.00  0.00     0.001 C 
HETATM    4  C   UNK     0      81.109 105.906 110.756  0.00  0.00     0.000 C 
ENDBRANCH   2   3
ENDBRANCH   1   2
BRANCH   1   5
HETATM    5  C   UNK     0      79.497 108.556 113.527  0.00  0.00     0.011 C 
BRANCH   5   6
HETATM    6  C   UNK     0      79.314 109.727 112.544  0.00  0.00     0.001 C 
HETATM    7  C   UNK     0      79.875 109.626 111.113  0.00  0.00     0.000 C 
ENDBRANCH   5   6
ENDBRANCH   1   5
BRANCH   1   8
HETATM    8  C   UNK     0      77.441 107.061 114.334  0.00  0.00     0.185 C 
HETATM    9  O   UNK     0      77.077 105.633 114.782  0.00  0.00    -0.647 OA
HETATM   10  O   UNK     0      76.613 108.259 114.834  0.00  0.00    -0.647 OA
ENDBRANCH   1   8
TORSDOF 5
ENDMDL
MODEL 4
REMARK VINA RESULT:      -3.8      1.549      3.769
REMARK  5 active torsions:
REMARK  status: ('A' for Active; 'I' for Inactive)
REMARK    1  A    between atoms: C_2  and  C_3 
REMARK    2  A    between atoms: C_3  and  C_4 
REMARK    3  A    between atoms: C_4  and  C_8 
REMARK    4  A    between atoms: C_4  and  C_5 
REMARK    5  A    between atoms: C_6  and  C_8 
ROOT
HETATM    1  C   UNK     0      80.277 100.085 107.210  0.00  0.00     0.087 C 
ENDROOT
BRANCH   1   2
HETATM    2  C   UNK     0      79.141 101.086 106.928  0.00  0.00     0.011 C 
BRANCH   2   3
HETATM    3  C   UNK     0      78.994 102.350 107.796  0.00  0.00     0.001 C 
HETATM    4  C   UNK     0      79.385 103.725 107.225  0.00  0.00     0.000 C 
ENDBRANCH   2   3
ENDBRANCH   1   2
BRANCH   1   5
HETATM    5  C   UNK     0      79.966  98.582 107.332  0.00  0.00     0.011 C 
BRANCH   5   6
HETATM    6  C   UNK     0      79.385  98.020 108.643  0.00  0.00     0.001 C 
HETATM    7  C   UNK     0      80.015  98.409 109.994  0.00  0.00     0.000 C 
ENDBRANCH   5   6
ENDBRANCH   1   5
BRANCH   1   8
HETATM    8  C   UNK     0      81.723 100.588 107.369  0.00  0.00     0.185 C 
HETATM    9  O   UNK     0      82.588 100.086 108.541  0.00  0.00    -0.647 OA
HETATM   10  O   UNK     0      82.305 101.593 106.358  0.00  0.00    -0.647 OA
ENDBRANCH   1   8
TORSDOF 5
ENDMDL
MODEL 5
REMARK VINA RESULT:      -3.8      7.452      8.762
REMARK  5 active torsions:
REMARK  status: ('A' for Active; 'I' for Inactive)
REMARK    1  A    between atoms: C_2  and  C_3 
REMARK    2  A    between atoms: C_3  and  C_4 
REMARK    3  A    between atoms: C_4  and  C_8 
REMARK    4  A    between atoms: C_4  and  C_5 
REMARK    5  A    between atoms: C_6  and  C_8 
ROOT
HETATM    1  C   UNK     0      78.128 106.767 112.930  0.00  0.00     0.087 C 
ENDROOT
BRANCH   1   2
HETATM    2  C   UNK     0      79.645 106.562 113.102  0.00  0.00     0.011 C 
BRANCH   2   3
HETATM    3  C   UNK     0      80.378 105.492 112.271  0.00  0.00     0.001 C 
HETATM    4  C   UNK     0      80.911 105.838 110.869  0.00  0.00     0.000 C 
ENDBRANCH   2   3
ENDBRANCH   1   2
BRANCH   1   5
HETATM    5  C   UNK     0      77.541 107.036 111.532  0.00  0.00     0.011 C 
BRANCH   5   6
HETATM    6  C   UNK     0      76.057 106.735 111.249  0.00  0.00     0.001 C 
HETATM    7  C   UNK     0      75.007 107.854 111.379  0.00  0.00     0.000 C 
ENDBRANCH   5   6
ENDBRANCH   1   5
BRANCH   1   8
HETATM    8  C   UNK     0      77.200 106.702 114.156  0.00  0.00     0.185 C 
HETATM    9  O   UNK     0      76.678 105.341 114.656  0.00  0.00    -0.647 OA
HETATM   10  O   UNK     0      76.792 107.997 114.883  0.00  0.00    -0.647 OA
ENDBRANCH   1   8
TORSDOF 5
ENDMDL
MODEL 6
REMARK VINA RESULT:      -3.7     37.849     39.019
REMARK  5 active torsions:
REMARK  status: ('A' for Active; 'I' for Inactive)
REMARK    1  A    between atoms: C_2  and  C_3 
REMARK    2  A    between atoms: C_3  and  C_4 
REMARK    3  A    between atoms: C_4  and  C_8 
REMARK    4  A    between atoms: C_4  and  C_5 
REMARK    5  A    between atoms: C_6  and  C_8 
ROOT
HETATM    1  C   UNK     0     111.971 122.739 108.201  0.00  0.00     0.087 C 
ENDROOT
BRANCH   1   2
HETATM    2  C   UNK     0     110.779 122.002 107.563  0.00  0.00     0.011 C 
BRANCH   2   3
HETATM    3  C   UNK     0     110.222 122.469 106.205  0.00  0.00     0.001 C 
HETATM    4  C   UNK     0     109.330 123.722 106.129  0.00  0.00     0.000 C 
ENDBRANCH   2   3
ENDBRANCH   1   2
BRANCH   1   5
HETATM    5  C   UNK     0     111.729 123.788 109.302  0.00  0.00     0.011 C 
BRANCH   5   6
HETATM    6  C   UNK     0     111.272 125.209 108.924  0.00  0.00     0.001 C 
HETATM    7  C   UNK     0     110.838 126.197 110.023  0.00  0.00     0.000 C 
ENDBRANCH   5   6
ENDBRANCH   1   5
BRANCH   1   8
HETATM    8  C   UNK     0     113.406 122.426 107.738  0.00  0.00     0.185 C 
HETATM    9  O   UNK     0     113.921 122.984 106.398  0.00  0.00    -0.647 OA
HETATM   10  O   UNK     0     114.325 121.555 108.614  0.00  0.00    -0.647 OA
ENDBRANCH   1   8
TORSDOF 5
ENDMDL
MODEL 7
REMARK VINA RESULT:      -3.6     19.696     21.135
REMARK  5 active torsions:
REMARK  status: ('A' for Active; 'I' for Inactive)
REMARK    1  A    between atoms: C_2  and  C_3 
REMARK    2  A    between atoms: C_3  and  C_4 
REMARK    3  A    between atoms: C_4  and  C_8 
REMARK    4  A    between atoms: C_4  and  C_5 
REMARK    5  A    between atoms: C_6  and  C_8 
ROOT
HETATM    1  C   UNK     0      86.823 111.253 124.854  0.00  0.00     0.087 C 
ENDROOT
BRANCH   1   2
HETATM    2  C   UNK     0      87.381 112.073 126.032  0.00  0.00     0.011 C 
BRANCH   2   3
HETATM    3  C   UNK     0      88.717 111.672 126.685  0.00  0.00     0.001 C 
HETATM    4  C   UNK     0      89.968 111.462 125.813  0.00  0.00     0.000 C 
ENDBRANCH   2   3
ENDBRANCH   1   2
BRANCH   1   5
HETATM    5  C   UNK     0      86.260 109.840 125.097  0.00  0.00     0.011 C 
BRANCH   5   6
HETATM    6  C   UNK     0      87.220 108.650 125.285  0.00  0.00     0.001 C 
HETATM    7  C   UNK     0      86.714 107.212 125.071  0.00  0.00     0.000 C 
ENDBRANCH   5   6
ENDBRANCH   1   5
BRANCH   1   8
HETATM    8  C   UNK     0      86.828 111.845 123.433  0.00  0.00     0.185 C 
HETATM    9  O   UNK     0      85.497 112.165 122.727  0.00  0.00    -0.647 OA
HETATM   10  O   UNK     0      88.164 112.118 122.717  0.00  0.00    -0.647 OA
ENDBRANCH   1   8
TORSDOF 5
ENDMDL
MODEL 8
REMARK VINA RESULT:      -3.6     20.718     22.120
REMARK  5 active torsions:
REMARK  status: ('A' for Active; 'I' for Inactive)
REMARK    1  A    between atoms: C_2  and  C_3 
REMARK    2  A    between atoms: C_3  and  C_4 
REMARK    3  A    between atoms: C_4  and  C_8 
REMARK    4  A    between atoms: C_4  and  C_5 
REMARK    5  A    between atoms: C_6  and  C_8 
ROOT
HETATM    1  C   UNK     0      91.810  81.599 106.094  0.00  0.00     0.087 C 
ENDROOT
BRANCH   1   2
HETATM    2  C   UNK     0      92.205  82.850 106.902  0.00  0.00     0.011 C 
BRANCH   2   3
HETATM    3  C   UNK     0      93.556  83.541 106.641  0.00  0.00     0.001 C 
HETATM    4  C   UNK     0      93.791  84.982 107.128  0.00  0.00     0.000 C 
ENDBRANCH   2   3
ENDBRANCH   1   2
BRANCH   1   5
HETATM    5  C   UNK     0      92.720  81.099 104.957  0.00  0.00     0.011 C 
BRANCH   5   6
HETATM    6  C   UNK     0      92.229  81.151 103.498  0.00  0.00     0.001 C 
HETATM    7  C   UNK     0      93.124  81.765 102.406  0.00  0.00     0.000 C 
ENDBRANCH   5   6
ENDBRANCH   1   5
BRANCH   1   8
HETATM    8  C   UNK     0      90.506  80.850 106.423  0.00  0.00     0.185 C 
HETATM    9  O   UNK     0      90.411  79.331 106.190  0.00  0.00    -0.647 OA
HETATM   10  O   UNK     0      89.297  81.620 106.986  0.00  0.00    -0.647 OA
ENDBRANCH   1   8
TORSDOF 5
ENDMDL
MODEL 9
REMARK VINA RESULT:      -3.6     23.951     25.114
REMARK  5 active torsions:
REMARK  status: ('A' for Active; 'I' for Inactive)
REMARK    1  A    between atoms: C_2  and  C_3 
REMARK    2  A    between atoms: C_3  and  C_4 
REMARK    3  A    between atoms: C_4  and  C_8 
REMARK    4  A    between atoms: C_4  and  C_5 
REMARK    5  A    between atoms: C_6  and  C_8 
ROOT
HETATM    1  C   UNK     0      96.547  86.084  96.050  0.00  0.00     0.087 C 
ENDROOT
BRANCH   1   2
HETATM    2  C   UNK     0      97.352  85.142  96.965  0.00  0.00     0.011 C 
BRANCH   2   3
HETATM    3  C   UNK     0      98.818  85.470  97.309  0.00  0.00     0.001 C 
HETATM    4  C   UNK     0      99.912  85.318  96.236  0.00  0.00     0.000 C 
ENDBRANCH   2   3
ENDBRANCH   1   2
BRANCH   1   5
HETATM    5  C   UNK     0      95.836  87.313  96.646  0.00  0.00     0.011 C 
BRANCH   5   6
HETATM    6  C   UNK     0      95.834  87.538  98.170  0.00  0.00     0.001 C 
HETATM    7  C   UNK     0      96.956  88.362  98.828  0.00  0.00     0.000 C 
ENDBRANCH   5   6
ENDBRANCH   1   5
BRANCH   1   8
HETATM    8  C   UNK     0      96.452  85.796  94.541  0.00  0.00     0.185 C 
HETATM    9  O   UNK     0      95.593  86.700  93.637  0.00  0.00    -0.647 OA
HETATM   10  O   UNK     0      97.216  84.604  93.935  0.00  0.00    -0.647 OA
ENDBRANCH   1   8
TORSDOF 5
ENDMDL
MODEL 10
REMARK VINA RESULT:      -3.6     38.921     40.166
REMARK  5 active torsions:
REMARK  status: ('A' for Active; 'I' for Inactive)
REMARK    1  A    between atoms: C_2  and  C_3 
REMARK    2  A    between atoms: C_3  and  C_4 
REMARK    3  A    between atoms: C_4  and  C_8 
REMARK    4  A    between atoms: C_4  and  C_5 
REMARK    5  A    between atoms: C_6  and  C_8 
ROOT
HETATM    1  C   UNK     0     114.392  90.532  89.162  0.00  0.00     0.087 C 
ENDROOT
BRANCH   1   2
HETATM    2  C   UNK     0     115.337  89.986  88.074  0.00  0.00     0.011 C 
BRANCH   2   3
HETATM    3  C   UNK     0     115.729  88.497  88.070  0.00  0.00     0.001 C 
HETATM    4  C   UNK     0     116.987  88.030  88.825  0.00  0.00     0.000 C 
ENDBRANCH   2   3
ENDBRANCH   1   2
BRANCH   1   5
HETATM    5  C   UNK     0     114.632  90.172  90.640  0.00  0.00     0.011 C 
BRANCH   5   6
HETATM    6  C   UNK     0     113.789  89.071  91.311  0.00  0.00     0.001 C 
HETATM    7  C   UNK     0     112.500  89.442  92.067  0.00  0.00     0.000 C 
ENDBRANCH   5   6
ENDBRANCH   1   5
BRANCH   1   8
HETATM    8  C   UNK     0     113.209  91.436  88.771  0.00  0.00     0.185 C 
HETATM    9  O   UNK     0     113.466  92.882  88.307  0.00  0.00    -0.647 OA
HETATM   10  O   UNK     0     111.769  90.895  88.845  0.00  0.00    -0.647 OA
ENDBRANCH   1   8
TORSDOF 5
ENDMDL
